Get the name of the MODPATH simulation file.
Read the first two records of the simulation file to get mpnamFile and mplistFile ...
Allocate rectangular unstructured grid component.
Allocate time discretization data component ...
Allocate disMf6Grid.
Read DIS binary grid file.
Read time discretization data component ...
 
 ----------------------------------------------------------
 Cell connection data:
 ----------------------------------------------------------
 Format has two lines for each cell, listed by cell number.
 Line 1: Cell connections
 Line 1: Face assignment codes
 ----------------------------------------------------------


 


 


 


 


 


 


 


 


 


 


 


 


 


 


 


 


 


 


 


 


 


 


 


 


 


 


 


 


 


 


 


 


 


 


 


 


 


 


 


 


 


 


 


 


 


 


 


 


 


 


 


 


 


 


 


 


 


 


 


 


 


 


 


 


 


 


 


 


 


 


 


 


 


 


 


 


 


 


 


 


 


 


 


 


 


 


 


 


 


 


 


 


 


 


 


 


 


 


 


 


 


 


 


 


 


 


 


 


 


 


 


 


 


 


 


 


 


 


 


 


 


 


 


 


 


 


 


 


 


 


 


 


 


 


 


 


 


 


 


 


 


 


 


 


 


 


 


 


 


 


 


 


 


 


 


 


 


 


 


 


 


 


 


 


 


 


 


 


 


 


 


 


 


 


 


 


 


 


 


 


 


 


 


 


 


 


 


 


 


 


 


 


 


 


 


 


 


 


 


 


 


 


 


 


 


 


 


 


 


 


 


 


 


 


 


 


 


 


 


 


 


 


 


 


 


 


 


 


 


 


 


 


 


 


 


 


 


 


 


 


 


 


 


 


 


 


 


 


 


 


 


 


 


 


 


 


 


 


 


 


 


 


 


 


 


 


 


 


 


 


 


 


 


 


 


 


 


 


 


 


 


 


 


 


 


 


 


 


 


 


 


 


 


 


 


 


 


 


 


 


 


 


 


 


 


 


 


 


 


 


 


 


 


 


 


 


 


 


 


 


 


 


 


 


 


 


 


 


 


 


 


 


 


 


 


 


 


 


 


 


 


 


 


 


 


 


 


 


 


 


 


 


 


 


 


 


 


 


 


 


 


 


 


 


 


 


 


 


 


 


 


 


 


 


 


 


 


 


 


 


 


 


 


 


 


 


 


 


 


 


 


 


 


 


 


 


 


 


 


 


 


 


 


 


 


 


 


 


 


 


 


 


 


 


 


 


 


 


 


 


 


 


 


 


 


 


 


 


 


 


 


 


 


 


 


 


 


 


 


 


 


 


 


 


 


 


 


 


 


 


 


 


 


 


 


 


 


 


 


 


 


 


 


 


 


 


 


 


 


 


 


 


 


 


 


 


 


 


 


 


 


 


 


 


 


 


 


 


 


 


 


 


 


 


 


 


 


 


 


 


 


 


 


 


 


 


 


 


 


 


 


 


 


 


 


 


 


 


 


 


 


 


 


 


 


 


 


 


 


 


 


 


 


 


 


 


 


 


 


 


 


 


 


 


 


 


 


 


 


 


 


 


 


 


 


 


 


 


 


 


 


 


 


 


 


 


 


 


 


 


 


 


 


 


 


 


 


 


 


 


 


 


 


 


 


 


 


 


 


 


 


 


 


 


 


 


 


 


 


 


 


 


 


 


 


 


 


 


 


 


 


 


 


 


 


 


 


 


 


 


 


 


 


 


 


 


 


 


 


 


 


 


 


 


 


 


 


 


 


 


 


 


 


 


 


 


 


 


 


 


 


 


 


 


 


 


 


 


 


 


 


 


 


 


 


 


 


 


 


 


 


 


 


 


 


 


 


 


 


 


 


 


 


 


 


 


 


 


 


 


 


 


 


 


 


 


 


 


 


 


 


 


 


 


 


 


 


 


 


 


 


 


 


 


 


 


 


 


 


 


 


 


 


 


 


 


 


 


 


 


 


 


 


 


 


 


 


 


 


 


 


 


 


 


 


 


 


 


 


 


 


 


 


 


 


 


 


 


 


 


 


 


 


 


 


 


 


 


 


 


 


 


 


 


 


 


 


 


 


 


 


 


 


 


 


 


 


 


 


 


 


 


 


 


 


 


 


 


 


 


 


 


 


 


 


 


 


 


 


 


 


 


 


 


 


 


 


 


 


 


 


 


 


 


 


 


 


 


 


 


 


 


 


 


 


 


 


 


 


 


 


 


 


 


 


 


 


 


 


 


 


 


 


 


 


 


 


 


 


 


 


 


 


 


 


 


 


 


 


 


 


 


 


 


 


 


 


 


 


 


 


 


 


 


 


 


 


 


 


 


 


 


 


 


 


 


 


 


 


 


 


 


 


 


 


 


 


 


 


 


 


 


 


 


 


 


 


 


 


 


 


 


 


 


 


 


 


 


 


 


 


 


 


 


 


 


 


 


 


 


 


 


 


 


 


 


 


 


 


 


 


 


 


 


 


 


 


 


 


 


 


 


 


 


 


 


 


 


 


 


 


 


 


 


 


 


 


 


 


 


 


 


 


 


 


 


 


 


 


 


 


 


 


 


 


 


 


 


 


 


 


 


 


 


 


 


 


 


 


 


 


 


 


 


 


 


 


 


 


 


 


 


 


 


 


 


 


 


 


 


 


 


 


 


 


 


 


 


 


 


 


 


 


 


 


 


 


 


 


 


 


 


 


 


 


 


 


 


 


 


 


 


 


 


 


 


 


 


 


 


 


 


 


 


 


 


 


 


 


 


 


 


 


 


 


 


 


 


 


 


 


 


 


 


 


 


 


 


 


 


 


 


 


 


 


 


 


 


 


 


 


 


 


 


 


 


 


 


 


 


 


 


 


 


 


 


 


 


 


 


 


 


 


 


 


 


 


 


 


 


 


 


 


 


 


 


 


 


 


 


 


 


 


 


 


 


 


 


 


 


 


 


 


 


 


 


 


 


 


 


 


 


 


 


 


 


 


 


 


 


 


 


 


 


 


 


 


 


 


 


 


 


 


 


 


 


 


 


 


 


 


 


 


 


 


 


 


 


 


 


 


 


 


 


 


 


 


 


 


 


 


 


 


 


 


 


 


 


 


 


 


 


 


 


 


 


 


 


 


 


 


 


 


 


 


 


 


 


 


 


 


 


 


 


 


 


 


 


 


 


 


 


 


 


 


 


 


 


 


 


 


 


 


 


 


 


 


 


 


 


 


 


 


 


 


 


 


 


 


 


 


 


 


 


 


 


 


 


 


 


 


 


 


 


 


 


 


 


 


 


 


 


 


 


 


 


 


 


 


 


 


 


 


 


 


 


 


 


 


 


 


 


 


 


 


 


 


 


 


 


 


 


 


 


 


 


 


 


 


 


 


 


 


 


 


 


 


 


 


 


 


 


 


 


 


 


 


 


 


 


 


 


 


 


 


 


 


 


 


 


 


 


 


 


 


 


 


 


 


 


 


 


 


 


 


 


 


 


 


 


 


 


 


 


 


 


 


 


 


 


 


 


 


 


 


 


 


 


 


 


 


 


 


 


 


 


 


 


 


 


 


 


 


 


 


 


 


 


 


 


 


 


 


 


 


 


 


 


 


 


 


 


 


 


 


 


 


 


 


 


 


 


 


 


 


 


 


 


 


 


 


 


 


 


 


 


 


 


 


 


 


 


 


 


 


 


 


 


 


 


 


 


 


 


 


 


 


 


 


 


 


 


 


 


 


 


 


 


 


 


 


 


 


 


 


 


 


 


 


 


 


 


 


 


 


 


 


 


 


 


 


 


 


 


 


 


 


 


 


 


 


 


 


 


 


 


 


 


 


 


 


 


 


 


 


 


 


 


 


 


 


 


 


 


 


 


 


 


 


 


 


 


 


 


 


 


 


 


 


 


 


 


 


 


 


 


 


 


 


 


 


 


 


 


 


 


 


 


 


 


 


 


 


 


 


 


 


 


 


 


 


 


 


 


 


 


 


 


 


 


 


 


 


 


 


 


 


 


 


 


 


 


 


 


 


 


 


 


 


 


 


 


 


 


 


 


 


 


 


 


 


 


 


 


 


 


 


 


 


 


 


 


 


 


 


 


 


 


 


 


 


 


 


 


 


 


 


 


 


 


 


 


 


 


 


 


 


 


 


 


 


 


 


 


 


 


 


 


 


 


 


 


 


 


 


 


 


 


 


 


 


 


 


 


 


 


 


 


 


 


 


 


 


 


 


 


 


 


 


 


 


 


 


 


 


 


 


 


 


 


 


 


 


 


 


 


 


 


 


 


 


 


 


 


 


 


 


 


 


 


 


 


 


 


 


 


 


 


 


 


 


 


 


 


 


 


 


 


 


 


 


 


 


 


 


 


 


 


 


 


 


 


 


 


 


 


 


 


 


 


 


 


 


 


 


 


 


 


 


 


 


 


 


 


 


 


 


 


 


 


 


 


 


 


 


 


 


 


 


 


 


 


 


 


 


 


 


 


 


 


 


 


 


 


 


 


 


 


 


 


 


 


 


 


 


 


 


 


 


 


 


 


 


 


 


 


 


 


 


 


 


 


 


 


 


 


 


 


 


 


 


 


 


 


 


 


 


 


 


 


 


 


 


 


 


 


 


 


 


 


 


 


 


 


 


 


 


 


 


 


 


 


 


 


 


 


 


 


 


 


 


 


 


 


 


 


 


 


 


 


 


 


 


 


 


 


 


 


 


 


 


 


 


 


 


 


 


 


 


 


 


 


 


 


 


 


 


 


 


 


 


 


 


 


 


 


 


 


 


 


 


 


 


 


 


 


 


 


 


 


 


 


 


 


 


 


 


 


 


 


 


 


 


 


 


 


 


 


 


 


 


 


 


 


 


 


 


 


 


 


 


 


 


 


 


 


 


 


 


 


 


 


 


 


 


 


 


 


 


 


 


 


 


 


 


 


 


 


 


 


 


 


 


 


 


 


 


 


 


 


 


 


 


 


 


 


 


 


 


 


 


 


 


 


 


 


 


 


 


 


 


 


 


 


 


 


 


 


 


 


 


 


 


 


 


 


 


 


 


 


 


 


 


 


 


 


 


 


 


 


 


 


 


 


 


 


 


 


 


 


 


 


 


 


 


 


 


 


 


 


 


 


 


 


 


 


 


 


 


 


 


 


 


 


 


 


 


 


 


 


 


 


 


 


 


 


 


 


 


 


 


 


 


 


 


 


 


 


 


 


 


 


 


 


 


 


 


 


 


 


 


 


 


 


 


 


 


 


 


 


 


 


 


 


 


 


 


 


 


 


 


 


 


 


 


 


 


 


 


 


 


 


 


 


 


 


 


 


 


 


 


 


 


 


 


 


 


 


 


 


 


 


 


 


 


 


 


 


 


 


 


 


 


 


 


 


 


 


 


 


 


 


 


 


 


 


 


 


 


 


 


 


 


 


 


 


 


 


 


 


 


 


 


 


 


 


 


 


 


 


 


 


 


 


 


 


 


 


 


 


 


 


 


 


 


 


 


 


 


 


 


 


 


 


 


 


 


 


 


 


 


 


 


 


 


 


 


 


 


 


 


 


 


 


 


 


 


 


 


 


 


 


 


 


 


 


 


 


 


 


 


 


 


 


 


 


 


 


 


 


 


 


 


 


 


 


 


 


 


 


 


 


 


 


 


 


 


 


 


 


 


 


 


 


 


 


 


 


 


 


 


 


 


 


 


 


 


 


 


 


 


 


 


 


 


 


 


 


 


 


 


 


 


 


 


 


 


 


 


 


 


 


 


 


 


 


 


 


 


 


 


 


 


 


 


 


 


 


 


 


 


 


 


 


 


 


 


 


 


 


 


 


 


 


 


 


 


 


 


 


 


 


 


 


 


 


 


 


 


 


 


 


 


 


 


 


 


 


 


 


 


 


 


 


 


 


 


 


 


 


 


 


 


 


 


 


 


 


 


 


 


 


 


 


 


 


 


 


 


 


 


 


 


 


 


 


 


 


 


 


 


 


 


 


 


 


 


 


 


 


 


 


 


 


 


 


 


 


 


 


 


 


 


 


 


 


 


 


 


 


 


 


 


 


 


 


 


 


 


 


 


 


 


 


 


 


 


 


 


 


 


 


 


 


 


 


 


 


 


 


 


 


 


 


 


 


 


 


 


 


 


 


 


 


 


 


 


 


 


 


 


 


 


 


 


 


 


 


 


 


 


 


 


 


 


 


 


 


 


 


 


 


 


 


 


 


 


 


 


 


 


 


 


 


 


 


 


 


 


 


 


 


 


 


 


 


 


 


 


 


 


 


 


 


 


 


 


 


 


 


 


 


 


 


 


 


 


 


 


 


 


 


 


 


 


 


 


 


 


 


 


 


 


 


 


 


 


 


 


 


 


 


 


 


 


 


 


 


 


 


 


 


 


 


 


 


 


 


 


 


 


 


 


 


 


 


 


 


 


 


 


 


 


 


 


 


 


 


 


 


 


 


 


 


 


 


 


 


 


 


 


 


 


 


 


 


 


 


 


 


 


 


 


 


 


 


 


 


 


 


 


 


 


 


 


 


 


 


 


 


 


 


 


 


 


 


 


 


 


 


 


 


 


 


 


 


 


 


 


 


 


 


 


 


 


 


 


 


 


 


 


 


 


 


 


 


 


 


 


 


 


 


 


 


 


 


 


 


 


 


 


 


 


 


 


 


 


 


 


 


 


 


 


 


 


 


 


 


 


 


 


 


 


 


 


 


 


 


 


 


 


 


 


 


 


 


 


 


 


 


 


 


 


 


 


 


 


 


 


 


 


 


 


 


 


 


 


 


 


 


 


 


 


 


 


 


 


 


 


 


 


 


 


 


 


 


 


 


 


 


 


 


 


 


 


 


 


 


 


 


 


 


 


 


 


 


 


 


 


 


 


 


 


 


 


 


 


 


 


 


 


 


 


 


 


 


 


 


 


 


 


 


 


 


 


 


 


 


 


 


 


 


 


 


 


 


 


 


 


 


 


 


 


 


 


 


 


 


 


 


 


 


 


 


 


 


 


 


 


 


 


 


 


 


 


 


 


 


 


 


 


 


 


 


 


 


 


 


 


 


 


 


 


 


 


 


 


 


 


 


 


 


 


 


 


 


 


 


 


 


 


 


 


 


 


 


 


 


 


 


 


 


 


 


 


 


 


 


 


 


 


 


 


 


 


 


 


 


 


 


 


 


 


 


 


 


 


 


 


 


 


 


 


 


 


 


 


 


 


 


 


 


 


 


 


 


 


 


 


 


 


 


 


 


 


 


 


 


 


 


 


 


 


 


 


 


 


 


 


 


 


 


 


 


 


 


 


 


 


 


 


 


 


 


 


 


 


 


 


 


 


 


 


 


 


 


 


 


 


 


 


 


 


 


 


 


 


 


 


 


 


 


 


 


 


 


 


 


 


 


 


 


 


 


 


 


 


 


 


 


 


 


 


 


 


 


 


 


 


 


 


 


 


 


 


 


 


 


 


 


 


 


 


 


 


 


 


 


 


 


 


 


 


 


 


 


 


 


 


 


 


 


 


 


 


 


 


 


 


 


 


 


 


 


 


 


 


 


 


 


 


 


 


 


 


 


 


 


 


 


 


 


 


 


 


 


 


 


 


 


 


 


 


 


 


 


 


 


 


 


 


 


 


 


 


 


 


 


 


 


 


 


 


 


 


 


 


 


 


 


 


 
     3253    3254    3353   13253
        0   20101   30101   50101
 
     3254    3253    3255    3354   13254
        0   10101   20101   30101   50101
 
     3255    3254    3256    3355   13255
        0   10101   20101   30101   50101
 
     3256    3255    3257    3356   13256
        0   10101   20101   30101   50101
 
     3257    3256    3258    3357   13257
        0   10101   20101   30101   50101
 
     3258    3257    3358   13258
        0   10101   30101   50101
 


 


 


 


 


 


 


 


 


 


 


 


 


 


 


 


 


 


 


 


 


 


 


 


 


 


 


 


 


 


 


 


 


 


 


 


 


 


 


 


 


 


 


 


 


 


 


 


 


 


 


 


 


 


 


 


 


 


 


 


 


 


 


 


 


 


 


 


 


 


 


 


 


 


 


 


 


 


 


 


 


 


 


 


 


 


 


 


 


 


 


 


 


 
     3352    3353    3452   13352
        0   20101   30101   50101
 
     3353    3253    3352    3354    3453   13353
        0   40101   10101   20101   30101   50101
 
     3354    3254    3353    3355    3454   13354
        0   40101   10101   20101   30101   50101
 
     3355    3255    3354    3356    3455   13355
        0   40101   10101   20101   30101   50101
 
     3356    3256    3355    3357    3456   13356
        0   40101   10101   20101   30101   50101
 
     3357    3257    3356    3358    3457   13357
        0   40101   10101   20101   30101   50101
 
     3358    3258    3357    3359    3458   13358
        0   40101   10101   20101   30101   50101
 
     3359    3358    3360    3459   13359
        0   10101   20101   30101   50101
 
     3360    3359    3361    3460   13360
        0   10101   20101   30101   50101
 
     3361    3360    3461   13361
        0   10101   30101   50101
 


 


 


 


 


 


 


 


 


 


 


 


 


 


 


 


 


 


 


 


 


 


 


 


 


 


 


 


 


 


 


 


 


 


 


 


 


 


 


 


 


 


 


 


 


 


 


 


 


 


 


 


 


 


 


 


 


 


 


 


 


 


 


 


 


 


 


 


 


 


 


 


 


 


 


 


 


 


 


 


 


 


 


 


 


 


 


 


 


 
     3451    3452    3551   13451
        0   20101   30101   50101
 
     3452    3352    3451    3453    3552   13452
        0   40101   10101   20101   30101   50101
 
     3453    3353    3452    3454    3553   13453
        0   40101   10101   20101   30101   50101
 
     3454    3354    3453    3455    3554   13454
        0   40101   10101   20101   30101   50101
 
     3455    3355    3454    3456    3555   13455
        0   40101   10101   20101   30101   50101
 
     3456    3356    3455    3457    3556   13456
        0   40101   10101   20101   30101   50101
 
     3457    3357    3456    3458    3557   13457
        0   40101   10101   20101   30101   50101
 
     3458    3358    3457    3459    3558   13458
        0   40101   10101   20101   30101   50101
 
     3459    3359    3458    3460    3559   13459
        0   40101   10101   20101   30101   50101
 
     3460    3360    3459    3461    3560   13460
        0   40101   10101   20101   30101   50101
 
     3461    3361    3460    3462    3561   13461
        0   40101   10101   20101   30101   50101
 
     3462    3461    3463    3562   13462
        0   10101   20101   30101   50101
 
     3463    3462    3464    3563   13463
        0   10101   20101   30101   50101
 
     3464    3463    3564   13464
        0   10101   30101   50101
 


 


 


 


 


 


 


 


 


 


 


 


 


 


 


 


 


 


 


 


 


 


 


 


 


 


 


 


 


 


 


 


 


 


 


 


 


 


 


 


 


 


 


 


 


 


 


 


 


 


 


 


 


 


 


 


 


 


 


 


 


 


 


 


 


 


 


 


 


 


 


 


 


 


 


 


 


 


 


 


 


 


 


 


 


 


 
     3551    3451    3552    3651   13551
        0   40101   20101   30101   50101
 
     3552    3452    3551    3553    3652   13552
        0   40101   10101   20101   30101   50101
 
     3553    3453    3552    3554    3653   13553
        0   40101   10101   20101   30101   50101
 
     3554    3454    3553    3555    3654   13554
        0   40101   10101   20101   30101   50101
 
     3555    3455    3554    3556    3655   13555
        0   40101   10101   20101   30101   50101
 
     3556    3456    3555    3557    3656   13556
        0   40101   10101   20101   30101   50101
 
     3557    3457    3556    3558    3657   13557
        0   40101   10101   20101   30101   50101
 
     3558    3458    3557    3559    3658   13558
        0   40101   10101   20101   30101   50101
 
     3559    3459    3558    3560    3659   13559
        0   40101   10101   20101   30101   50101
 
     3560    3460    3559    3561    3660   13560
        0   40101   10101   20101   30101   50101
 
     3561    3461    3560    3562    3661   13561
        0   40101   10101   20101   30101   50101
 
     3562    3462    3561    3563    3662   13562
        0   40101   10101   20101   30101   50101
 
     3563    3463    3562    3564    3663   13563
        0   40101   10101   20101   30101   50101
 
     3564    3464    3563    3565    3664   13564
        0   40101   10101   20101   30101   50101
 
     3565    3564    3566    3665   13565
        0   10101   20101   30101   50101
 
     3566    3565    3567    3666   13566
        0   10101   20101   30101   50101
 
     3567    3566    3667   13567
        0   10101   30101   50101
 


 


 


 


 


 


 


 


 


 


 


 


 


 


 


 


 


 


 


 


 


 


 


 


 


 


 


 


 


 


 


 


 


 


 


 


 


 


 


 


 


 


 


 


 


 


 


 


 


 


 


 


 


 


 


 


 


 


 


 


 


 


 


 


 


 


 


 


 


 


 


 


 


 


 


 


 


 


 


 


 


 


 


 
     3651    3551    3652    3751   13651
        0   40101   20101   30101   50101
 
     3652    3552    3651    3653    3752   13652
        0   40101   10101   20101   30101   50101
 
     3653    3553    3652    3654    3753   13653
        0   40101   10101   20101   30101   50101
 
     3654    3554    3653    3655    3754   13654
        0   40101   10101   20101   30101   50101
 
     3655    3555    3654    3656    3755   13655
        0   40101   10101   20101   30101   50101
 
     3656    3556    3655    3657    3756   13656
        0   40101   10101   20101   30101   50101
 
     3657    3557    3656    3658    3757   13657
        0   40101   10101   20101   30101   50101
 
     3658    3558    3657    3659    3758   13658
        0   40101   10101   20101   30101   50101
 
     3659    3559    3658    3660    3759   13659
        0   40101   10101   20101   30101   50101
 
     3660    3560    3659    3661    3760   13660
        0   40101   10101   20101   30101   50101
 
     3661    3561    3660    3662    3761   13661
        0   40101   10101   20101   30101   50101
 
     3662    3562    3661    3663    3762   13662
        0   40101   10101   20101   30101   50101
 
     3663    3563    3662    3664    3763   13663
        0   40101   10101   20101   30101   50101
 
     3664    3564    3663    3665    3764   13664
        0   40101   10101   20101   30101   50101
 
     3665    3565    3664    3666    3765   13665
        0   40101   10101   20101   30101   50101
 
     3666    3566    3665    3667    3766   13666
        0   40101   10101   20101   30101   50101
 
     3667    3567    3666    3668    3767   13667
        0   40101   10101   20101   30101   50101
 
     3668    3667    3768   13668
        0   10101   30101   50101
 


 


 


 


 


 


 


 


 


 


 


 


 


 


 


 


 


 


 


 


 


 


 


 


 


 


 


 


 


 


 


 


 


 


 


 


 


 


 


 


 


 


 


 


 


 


 


 


 


 


 


 


 


 


 


 


 


 


 


 


 


 


 


 


 


 


 


 


 


 


 


 


 


 


 


 


 


 


 


 


 


 
     3750    3751    3850   13750
        0   20101   30101   50101
 
     3751    3651    3750    3752    3851   13751
        0   40101   10101   20101   30101   50101
 
     3752    3652    3751    3753    3852   13752
        0   40101   10101   20101   30101   50101
 
     3753    3653    3752    3754    3853   13753
        0   40101   10101   20101   30101   50101
 
     3754    3654    3753    3755    3854   13754
        0   40101   10101   20101   30101   50101
 
     3755    3655    3754    3756    3855   13755
        0   40101   10101   20101   30101   50101
 
     3756    3656    3755    3757    3856   13756
        0   40101   10101   20101   30101   50101
 
     3757    3657    3756    3758    3857   13757
        0   40101   10101   20101   30101   50101
 
     3758    3658    3757    3759    3858   13758
        0   40101   10101   20101   30101   50101
 
     3759    3659    3758    3760    3859   13759
        0   40101   10101   20101   30101   50101
 
     3760    3660    3759    3761    3860   13760
        0   40101   10101   20101   30101   50101
 
     3761    3661    3760    3762    3861   13761
        0   40101   10101   20101   30101   50101
 
     3762    3662    3761    3763    3862   13762
        0   40101   10101   20101   30101   50101
 
     3763    3663    3762    3764    3863   13763
        0   40101   10101   20101   30101   50101
 
     3764    3664    3763    3765    3864   13764
        0   40101   10101   20101   30101   50101
 
     3765    3665    3764    3766    3865   13765
        0   40101   10101   20101   30101   50101
 
     3766    3666    3765    3767    3866   13766
        0   40101   10101   20101   30101   50101
 
     3767    3667    3766    3768    3867   13767
        0   40101   10101   20101   30101   50101
 
     3768    3668    3767   13768
        0   40101   10101   50101
 


 


 


 


 


 


 


 


 


 


 


 


 


 


 


 


 


 


 


 


 


 


 


 


 


 


 


 


 


 


 


 


 


 


 


 


 


 


 


 


 


 


 


 


 


 


 


 


 


 


 


 


 


 


 


 


 


 


 


 


 


 


 


 


 


 


 


 


 


 


 


 


 


 


 


 


 


 


 


 


 


 
     3850    3750    3851    3950   13850
        0   40101   20101   30101   50101
 
     3851    3751    3850    3852    3951   13851
        0   40101   10101   20101   30101   50101
 
     3852    3752    3851    3853    3952   13852
        0   40101   10101   20101   30101   50101
 
     3853    3753    3852    3854    3953   13853
        0   40101   10101   20101   30101   50101
 
     3854    3754    3853    3855    3954   13854
        0   40101   10101   20101   30101   50101
 
     3855    3755    3854    3856    3955   13855
        0   40101   10101   20101   30101   50101
 
     3856    3756    3855    3857    3956   13856
        0   40101   10101   20101   30101   50101
 
     3857    3757    3856    3858    3957   13857
        0   40101   10101   20101   30101   50101
 
     3858    3758    3857    3859    3958   13858
        0   40101   10101   20101   30101   50101
 
     3859    3759    3858    3860    3959   13859
        0   40101   10101   20101   30101   50101
 
     3860    3760    3859    3861    3960   13860
        0   40101   10101   20101   30101   50101
 
     3861    3761    3860    3862    3961   13861
        0   40101   10101   20101   30101   50101
 
     3862    3762    3861    3863    3962   13862
        0   40101   10101   20101   30101   50101
 
     3863    3763    3862    3864    3963   13863
        0   40101   10101   20101   30101   50101
 
     3864    3764    3863    3865    3964   13864
        0   40101   10101   20101   30101   50101
 
     3865    3765    3864    3866    3965   13865
        0   40101   10101   20101   30101   50101
 
     3866    3766    3865    3867    3966   13866
        0   40101   10101   20101   30101   50101
 
     3867    3767    3866    3967   13867
        0   40101   10101   30101   50101
 


 


 


 


 


 


 


 


 


 


 


 


 


 


 


 


 


 


 


 


 


 


 


 


 


 


 


 


 


 


 


 


 


 


 


 


 


 


 


 


 


 


 


 


 


 


 


 


 


 


 


 


 


 


 


 


 


 


 


 


 


 


 


 


 


 


 


 


 


 


 


 


 


 


 


 


 


 


 


 


 


 


 
     3950    3850    3951    4050   13950
        0   40101   20101   30101   50101
 
     3951    3851    3950    3952    4051   13951
        0   40101   10101   20101   30101   50101
 
     3952    3852    3951    3953    4052   13952
        0   40101   10101   20101   30101   50101
 
     3953    3853    3952    3954    4053   13953
        0   40101   10101   20101   30101   50101
 
     3954    3854    3953    3955    4054   13954
        0   40101   10101   20101   30101   50101
 
     3955    3855    3954    3956    4055   13955
        0   40101   10101   20101   30101   50101
 
     3956    3856    3955    3957    4056   13956
        0   40101   10101   20101   30101   50101
 
     3957    3857    3956    3958    4057   13957
        0   40101   10101   20101   30101   50101
 
     3958    3858    3957    3959    4058   13958
        0   40101   10101   20101   30101   50101
 
     3959    3859    3958    3960    4059   13959
        0   40101   10101   20101   30101   50101
 
     3960    3860    3959    3961    4060   13960
        0   40101   10101   20101   30101   50101
 
     3961    3861    3960    3962    4061   13961
        0   40101   10101   20101   30101   50101
 
     3962    3862    3961    3963    4062   13962
        0   40101   10101   20101   30101   50101
 
     3963    3863    3962    3964    4063   13963
        0   40101   10101   20101   30101   50101
 
     3964    3864    3963    3965    4064   13964
        0   40101   10101   20101   30101   50101
 
     3965    3865    3964    3966    4065   13965
        0   40101   10101   20101   30101   50101
 
     3966    3866    3965    3967    4066   13966
        0   40101   10101   20101   30101   50101
 
     3967    3867    3966    4067   13967
        0   40101   10101   30101   50101
 


 


 


 


 


 


 


 


 


 


 


 


 


 


 


 


 


 


 


 


 


 


 


 


 


 


 


 


 


 


 


 


 


 


 


 


 


 


 


 


 


 


 


 


 


 


 


 


 


 


 


 


 


 


 


 


 


 


 


 


 


 


 


 


 


 


 


 


 


 


 


 


 


 


 


 


 


 


 


 


 


 
     4049    4050    4149   14049
        0   20101   30101   50101
 
     4050    3950    4049    4051    4150   14050
        0   40101   10101   20101   30101   50101
 
     4051    3951    4050    4052    4151   14051
        0   40101   10101   20101   30101   50101
 
     4052    3952    4051    4053    4152   14052
        0   40101   10101   20101   30101   50101
 
     4053    3953    4052    4054    4153   14053
        0   40101   10101   20101   30101   50101
 
     4054    3954    4053    4055    4154   14054
        0   40101   10101   20101   30101   50101
 
     4055    3955    4054    4056    4155   14055
        0   40101   10101   20101   30101   50101
 
     4056    3956    4055    4057    4156   14056
        0   40101   10101   20101   30101   50101
 
     4057    3957    4056    4058    4157   14057
        0   40101   10101   20101   30101   50101
 
     4058    3958    4057    4059    4158   14058
        0   40101   10101   20101   30101   50101
 
     4059    3959    4058    4060    4159   14059
        0   40101   10101   20101   30101   50101
 
     4060    3960    4059    4061    4160   14060
        0   40101   10101   20101   30101   50101
 
     4061    3961    4060    4062    4161   14061
        0   40101   10101   20101   30101   50101
 
     4062    3962    4061    4063    4162   14062
        0   40101   10101   20101   30101   50101
 
     4063    3963    4062    4064    4163   14063
        0   40101   10101   20101   30101   50101
 
     4064    3964    4063    4065    4164   14064
        0   40101   10101   20101   30101   50101
 
     4065    3965    4064    4066    4165   14065
        0   40101   10101   20101   30101   50101
 
     4066    3966    4065    4067    4166   14066
        0   40101   10101   20101   30101   50101
 
     4067    3967    4066   14067
        0   40101   10101   50101
 


 


 


 


 


 


 


 


 


 


 


 


 


 


 


 


 


 


 


 


 


 


 


 


 


 


 


 


 


 


 


 


 


 


 


 


 


 


 


 


 


 


 


 


 


 


 


 


 


 


 


 


 


 


 


 


 


 


 


 


 


 


 


 


 


 


 


 


 


 


 


 


 


 


 


 


 


 


 


 


 


 
     4149    4049    4150    4249   14149
        0   40101   20101   30101   50101
 
     4150    4050    4149    4151    4250   14150
        0   40101   10101   20101   30101   50101
 
     4151    4051    4150    4152    4251   14151
        0   40101   10101   20101   30101   50101
 
     4152    4052    4151    4153    4252   14152
        0   40101   10101   20101   30101   50101
 
     4153    4053    4152    4154    4253   14153
        0   40101   10101   20101   30101   50101
 
     4154    4054    4153    4155    4254   14154
        0   40101   10101   20101   30101   50101
 
     4155    4055    4154    4156    4255   14155
        0   40101   10101   20101   30101   50101
 
     4156    4056    4155    4157    4256   14156
        0   40101   10101   20101   30101   50101
 
     4157    4057    4156    4158    4257   14157
        0   40101   10101   20101   30101   50101
 
     4158    4058    4157    4159    4258   14158
        0   40101   10101   20101   30101   50101
 
     4159    4059    4158    4160    4259   14159
        0   40101   10101   20101   30101   50101
 
     4160    4060    4159    4161    4260   14160
        0   40101   10101   20101   30101   50101
 
     4161    4061    4160    4162    4261   14161
        0   40101   10101   20101   30101   50101
 
     4162    4062    4161    4163    4262   14162
        0   40101   10101   20101   30101   50101
 
     4163    4063    4162    4164    4263   14163
        0   40101   10101   20101   30101   50101
 
     4164    4064    4163    4165    4264   14164
        0   40101   10101   20101   30101   50101
 
     4165    4065    4164    4166    4265   14165
        0   40101   10101   20101   30101   50101
 
     4166    4066    4165    4266   14166
        0   40101   10101   30101   50101
 


 


 


 


 


 


 


 


 


 


 


 


 


 


 


 


 


 


 


 


 


 


 


 


 


 


 


 


 


 


 


 


 


 


 


 


 


 


 


 


 


 


 


 


 


 


 


 


 


 


 


 


 


 


 


 


 


 


 


 


 


 


 


 


 


 


 


 


 


 


 


 


 


 


 


 


 


 


 


 


 


 
     4248    4249    4348   14248
        0   20101   30101   50101
 
     4249    4149    4248    4250    4349   14249
        0   40101   10101   20101   30101   50101
 
     4250    4150    4249    4251    4350   14250
        0   40101   10101   20101   30101   50101
 
     4251    4151    4250    4252    4351   14251
        0   40101   10101   20101   30101   50101
 
     4252    4152    4251    4253    4352   14252
        0   40101   10101   20101   30101   50101
 
     4253    4153    4252    4254    4353   14253
        0   40101   10101   20101   30101   50101
 
     4254    4154    4253    4255    4354   14254
        0   40101   10101   20101   30101   50101
 
     4255    4155    4254    4256    4355   14255
        0   40101   10101   20101   30101   50101
 
     4256    4156    4255    4257    4356   14256
        0   40101   10101   20101   30101   50101
 
     4257    4157    4256    4258    4357   14257
        0   40101   10101   20101   30101   50101
 
     4258    4158    4257    4259    4358   14258
        0   40101   10101   20101   30101   50101
 
     4259    4159    4258    4260    4359   14259
        0   40101   10101   20101   30101   50101
 
     4260    4160    4259    4261    4360   14260
        0   40101   10101   20101   30101   50101
 
     4261    4161    4260    4262    4361   14261
        0   40101   10101   20101   30101   50101
 
     4262    4162    4261    4263    4362   14262
        0   40101   10101   20101   30101   50101
 
     4263    4163    4262    4264    4363   14263
        0   40101   10101   20101   30101   50101
 
     4264    4164    4263    4265    4364   14264
        0   40101   10101   20101   30101   50101
 
     4265    4165    4264    4266    4365   14265
        0   40101   10101   20101   30101   50101
 
     4266    4166    4265   14266
        0   40101   10101   50101
 


 


 


 


 


 


 


 


 


 


 


 


 


 


 


 


 


 


 


 


 


 


 


 


 


 


 


 


 


 


 


 


 


 


 


 


 


 


 


 


 


 


 


 


 


 


 


 


 


 


 


 


 


 


 


 


 


 


 


 


 


 


 


 


 


 


 


 


 


 


 


 


 


 


 


 


 


 


 


 


 


 
     4348    4248    4349    4448   14348
        0   40101   20101   30101   50101
 
     4349    4249    4348    4350    4449   14349
        0   40101   10101   20101   30101   50101
 
     4350    4250    4349    4351    4450   14350
        0   40101   10101   20101   30101   50101
 
     4351    4251    4350    4352    4451   14351
        0   40101   10101   20101   30101   50101
 
     4352    4252    4351    4353    4452   14352
        0   40101   10101   20101   30101   50101
 
     4353    4253    4352    4354    4453   14353
        0   40101   10101   20101   30101   50101
 
     4354    4254    4353    4355    4454   14354
        0   40101   10101   20101   30101   50101
 
     4355    4255    4354    4356    4455   14355
        0   40101   10101   20101   30101   50101
 
     4356    4256    4355    4357    4456   14356
        0   40101   10101   20101   30101   50101
 
     4357    4257    4356    4358    4457   14357
        0   40101   10101   20101   30101   50101
 
     4358    4258    4357    4359    4458   14358
        0   40101   10101   20101   30101   50101
 
     4359    4259    4358    4360    4459   14359
        0   40101   10101   20101   30101   50101
 
     4360    4260    4359    4361    4460   14360
        0   40101   10101   20101   30101   50101
 
     4361    4261    4360    4362    4461   14361
        0   40101   10101   20101   30101   50101
 
     4362    4262    4361    4363    4462   14362
        0   40101   10101   20101   30101   50101
 
     4363    4263    4362    4364    4463   14363
        0   40101   10101   20101   30101   50101
 
     4364    4264    4363    4365    4464   14364
        0   40101   10101   20101   30101   50101
 
     4365    4265    4364    4465   14365
        0   40101   10101   30101   50101
 


 


 


 


 


 


 


 


 


 


 


 


 


 


 


 


 


 


 


 


 


 


 


 


 


 


 


 


 


 


 


 


 


 


 


 


 


 


 


 


 


 


 


 


 


 


 


 


 


 


 


 


 


 


 


 


 


 


 


 


 


 


 


 


 


 


 


 


 


 


 


 


 


 


 


 


 


 


 


 


 


 


 
     4448    4348    4449    4548   14448
        0   40101   20101   30101   50101
 
     4449    4349    4448    4450    4549   14449
        0   40101   10101   20101   30101   50101
 
     4450    4350    4449    4451    4550   14450
        0   40101   10101   20101   30101   50101
 
     4451    4351    4450    4452    4551   14451
        0   40101   10101   20101   30101   50101
 
     4452    4352    4451    4453    4552   14452
        0   40101   10101   20101   30101   50101
 
     4453    4353    4452    4454    4553   14453
        0   40101   10101   20101   30101   50101
 
     4454    4354    4453    4455    4554   14454
        0   40101   10101   20101   30101   50101
 
     4455    4355    4454    4456    4555   14455
        0   40101   10101   20101   30101   50101
 
     4456    4356    4455    4457    4556   14456
        0   40101   10101   20101   30101   50101
 
     4457    4357    4456    4458    4557   14457
        0   40101   10101   20101   30101   50101
 
     4458    4358    4457    4459    4558   14458
        0   40101   10101   20101   30101   50101
 
     4459    4359    4458    4460    4559   14459
        0   40101   10101   20101   30101   50101
 
     4460    4360    4459    4461    4560   14460
        0   40101   10101   20101   30101   50101
 
     4461    4361    4460    4462    4561   14461
        0   40101   10101   20101   30101   50101
 
     4462    4362    4461    4463    4562   14462
        0   40101   10101   20101   30101   50101
 
     4463    4363    4462    4464    4563   14463
        0   40101   10101   20101   30101   50101
 
     4464    4364    4463    4465    4564   14464
        0   40101   10101   20101   30101   50101
 
     4465    4365    4464    4565   14465
        0   40101   10101   30101   50101
 


 


 


 


 


 


 


 


 


 


 


 


 


 


 


 


 


 


 


 


 


 


 


 


 


 


 


 


 


 


 


 


 


 


 


 


 


 


 


 


 


 


 


 


 


 


 


 


 


 


 


 


 


 


 


 


 


 


 


 


 


 


 


 


 


 


 


 


 


 


 


 


 


 


 


 


 


 


 


 


 


 
     4547    4548    4647   14547
        0   20101   30101   50101
 
     4548    4448    4547    4549    4648   14548
        0   40101   10101   20101   30101   50101
 
     4549    4449    4548    4550    4649   14549
        0   40101   10101   20101   30101   50101
 
     4550    4450    4549    4551    4650   14550
        0   40101   10101   20101   30101   50101
 
     4551    4451    4550    4552    4651   14551
        0   40101   10101   20101   30101   50101
 
     4552    4452    4551    4553    4652   14552
        0   40101   10101   20101   30101   50101
 
     4553    4453    4552    4554    4653   14553
        0   40101   10101   20101   30101   50101
 
     4554    4454    4553    4555    4654   14554
        0   40101   10101   20101   30101   50101
 
     4555    4455    4554    4556    4655   14555
        0   40101   10101   20101   30101   50101
 
     4556    4456    4555    4557    4656   14556
        0   40101   10101   20101   30101   50101
 
     4557    4457    4556    4558    4657   14557
        0   40101   10101   20101   30101   50101
 
     4558    4458    4557    4559    4658   14558
        0   40101   10101   20101   30101   50101
 
     4559    4459    4558    4560    4659   14559
        0   40101   10101   20101   30101   50101
 
     4560    4460    4559    4561    4660   14560
        0   40101   10101   20101   30101   50101
 
     4561    4461    4560    4562    4661   14561
        0   40101   10101   20101   30101   50101
 
     4562    4462    4561    4563    4662   14562
        0   40101   10101   20101   30101   50101
 
     4563    4463    4562    4564    4663   14563
        0   40101   10101   20101   30101   50101
 
     4564    4464    4563    4565    4664   14564
        0   40101   10101   20101   30101   50101
 
     4565    4465    4564   14565
        0   40101   10101   50101
 


 


 


 


 


 


 


 


 


 


 


 


 


 


 


 


 


 


 


 


 


 


 


 


 


 


 


 


 


 


 


 


 


 


 


 


 


 


 


 


 


 


 


 


 


 


 


 


 


 


 


 


 


 


 


 


 


 


 


 


 


 


 


 


 


 


 


 


 


 


 


 


 


 


 


 


 


 


 


 


 


 
     4647    4547    4648    4747   14647
        0   40101   20101   30101   50101
 
     4648    4548    4647    4649    4748   14648
        0   40101   10101   20101   30101   50101
 
     4649    4549    4648    4650    4749   14649
        0   40101   10101   20101   30101   50101
 
     4650    4550    4649    4651    4750   14650
        0   40101   10101   20101   30101   50101
 
     4651    4551    4650    4652    4751   14651
        0   40101   10101   20101   30101   50101
 
     4652    4552    4651    4653    4752   14652
        0   40101   10101   20101   30101   50101
 
     4653    4553    4652    4654    4753   14653
        0   40101   10101   20101   30101   50101
 
     4654    4554    4653    4655    4754   14654
        0   40101   10101   20101   30101   50101
 
     4655    4555    4654    4656    4755   14655
        0   40101   10101   20101   30101   50101
 
     4656    4556    4655    4657    4756   14656
        0   40101   10101   20101   30101   50101
 
     4657    4557    4656    4658    4757   14657
        0   40101   10101   20101   30101   50101
 
     4658    4558    4657    4659    4758   14658
        0   40101   10101   20101   30101   50101
 
     4659    4559    4658    4660    4759   14659
        0   40101   10101   20101   30101   50101
 
     4660    4560    4659    4661    4760   14660
        0   40101   10101   20101   30101   50101
 
     4661    4561    4660    4662    4761   14661
        0   40101   10101   20101   30101   50101
 
     4662    4562    4661    4663    4762   14662
        0   40101   10101   20101   30101   50101
 
     4663    4563    4662    4664    4763   14663
        0   40101   10101   20101   30101   50101
 
     4664    4564    4663    4764   14664
        0   40101   10101   30101   50101
 


 


 


 


 


 


 


 


 


 


 


 


 


 


 


 


 


 


 


 


 


 


 


 


 


 


 


 


 


 


 


 


 


 


 


 


 


 


 


 


 


 


 


 


 


 


 


 


 


 


 


 


 


 


 


 


 


 


 


 


 


 


 


 


 


 


 


 


 


 


 


 


 


 


 


 


 


 


 


 


 


 


 
     4747    4647    4748    4847   14747
        0   40101   20101   30101   50101
 
     4748    4648    4747    4749    4848   14748
        0   40101   10101   20101   30101   50101
 
     4749    4649    4748    4750    4849   14749
        0   40101   10101   20101   30101   50101
 
     4750    4650    4749    4751    4850   14750
        0   40101   10101   20101   30101   50101
 
     4751    4651    4750    4752    4851   14751
        0   40101   10101   20101   30101   50101
 
     4752    4652    4751    4753    4852   14752
        0   40101   10101   20101   30101   50101
 
     4753    4653    4752    4754    4853   14753
        0   40101   10101   20101   30101   50101
 
     4754    4654    4753    4755    4854   14754
        0   40101   10101   20101   30101   50101
 
     4755    4655    4754    4756    4855   14755
        0   40101   10101   20101   30101   50101
 
     4756    4656    4755    4757    4856   14756
        0   40101   10101   20101   30101   50101
 
     4757    4657    4756    4758    4857   14757
        0   40101   10101   20101   30101   50101
 
     4758    4658    4757    4759    4858   14758
        0   40101   10101   20101   30101   50101
 
     4759    4659    4758    4760    4859   14759
        0   40101   10101   20101   30101   50101
 
     4760    4660    4759    4761    4860   14760
        0   40101   10101   20101   30101   50101
 
     4761    4661    4760    4762    4861   14761
        0   40101   10101   20101   30101   50101
 
     4762    4662    4761    4763    4862   14762
        0   40101   10101   20101   30101   50101
 
     4763    4663    4762    4764    4863   14763
        0   40101   10101   20101   30101   50101
 
     4764    4664    4763    4864   14764
        0   40101   10101   30101   50101
 


 


 


 


 


 


 


 


 


 


 


 


 


 


 


 


 


 


 


 


 


 


 


 


 


 


 


 


 


 


 


 


 


 


 


 


 


 


 


 


 


 


 


 


 


 


 


 


 


 


 


 


 


 


 


 


 


 


 


 


 


 


 


 


 


 


 


 


 


 


 


 


 


 


 


 


 


 


 


 


 


 


 
     4847    4747    4848    4947   14847
        0   40101   20101   30101   50101
 
     4848    4748    4847    4849    4948   14848
        0   40101   10101   20101   30101   50101
 
     4849    4749    4848    4850    4949   14849
        0   40101   10101   20101   30101   50101
 
     4850    4750    4849    4851    4950   14850
        0   40101   10101   20101   30101   50101
 
     4851    4751    4850    4852    4951   14851
        0   40101   10101   20101   30101   50101
 
     4852    4752    4851    4853    4952   14852
        0   40101   10101   20101   30101   50101
 
     4853    4753    4852    4854    4953   14853
        0   40101   10101   20101   30101   50101
 
     4854    4754    4853    4855    4954   14854
        0   40101   10101   20101   30101   50101
 
     4855    4755    4854    4856    4955   14855
        0   40101   10101   20101   30101   50101
 
     4856    4756    4855    4857    4956   14856
        0   40101   10101   20101   30101   50101
 
     4857    4757    4856    4858    4957   14857
        0   40101   10101   20101   30101   50101
 
     4858    4758    4857    4859    4958   14858
        0   40101   10101   20101   30101   50101
 
     4859    4759    4858    4860    4959   14859
        0   40101   10101   20101   30101   50101
 
     4860    4760    4859    4861    4960   14860
        0   40101   10101   20101   30101   50101
 
     4861    4761    4860    4862    4961   14861
        0   40101   10101   20101   30101   50101
 
     4862    4762    4861    4863    4962   14862
        0   40101   10101   20101   30101   50101
 
     4863    4763    4862    4864    4963   14863
        0   40101   10101   20101   30101   50101
 
     4864    4764    4863   14864
        0   40101   10101   50101
 


 


 


 


 


 


 


 


 


 


 


 


 


 


 


 


 


 


 


 


 


 


 


 


 


 


 


 


 


 


 


 


 


 


 


 


 


 


 


 


 


 


 


 


 


 


 


 


 


 


 


 


 


 


 


 


 


 


 


 


 


 


 


 


 


 


 


 


 


 


 


 


 


 


 


 


 


 


 


 


 


 


 
     4947    4847    4948    5047   14947
        0   40101   20101   30101   50101
 
     4948    4848    4947    4949    5048   14948
        0   40101   10101   20101   30101   50101
 
     4949    4849    4948    4950    5049   14949
        0   40101   10101   20101   30101   50101
 
     4950    4850    4949    4951    5050   14950
        0   40101   10101   20101   30101   50101
 
     4951    4851    4950    4952    5051   14951
        0   40101   10101   20101   30101   50101
 
     4952    4852    4951    4953    5052   14952
        0   40101   10101   20101   30101   50101
 
     4953    4853    4952    4954    5053   14953
        0   40101   10101   20101   30101   50101
 
     4954    4854    4953    4955    5054   14954
        0   40101   10101   20101   30101   50101
 
     4955    4855    4954    4956    5055   14955
        0   40101   10101   20101   30101   50101
 
     4956    4856    4955    4957    5056   14956
        0   40101   10101   20101   30101   50101
 
     4957    4857    4956    4958    5057   14957
        0   40101   10101   20101   30101   50101
 
     4958    4858    4957    4959    5058   14958
        0   40101   10101   20101   30101   50101
 
     4959    4859    4958    4960    5059   14959
        0   40101   10101   20101   30101   50101
 
     4960    4860    4959    4961    5060   14960
        0   40101   10101   20101   30101   50101
 
     4961    4861    4960    4962    5061   14961
        0   40101   10101   20101   30101   50101
 
     4962    4862    4961    4963    5062   14962
        0   40101   10101   20101   30101   50101
 
     4963    4863    4962    5063   14963
        0   40101   10101   30101   50101
 


 


 


 


 


 


 


 


 


 


 


 


 


 


 


 


 


 


 


 


 


 


 


 


 


 


 


 


 


 


 


 


 


 


 


 


 


 


 


 


 


 


 


 


 


 


 


 


 


 


 


 


 


 


 


 


 


 


 


 


 


 


 


 


 


 


 


 


 


 


 


 


 


 


 


 


 


 


 


 


 


 


 


 
     5047    4947    5048    5147   15047
        0   40101   20101   30101   50101
 
     5048    4948    5047    5049    5148   15048
        0   40101   10101   20101   30101   50101
 
     5049    4949    5048    5050    5149   15049
        0   40101   10101   20101   30101   50101
 
     5050    4950    5049    5051    5150   15050
        0   40101   10101   20101   30101   50101
 
     5051    4951    5050    5052    5151   15051
        0   40101   10101   20101   30101   50101
 
     5052    4952    5051    5053    5152   15052
        0   40101   10101   20101   30101   50101
 
     5053    4953    5052    5054    5153   15053
        0   40101   10101   20101   30101   50101
 
     5054    4954    5053    5055    5154   15054
        0   40101   10101   20101   30101   50101
 
     5055    4955    5054    5056    5155   15055
        0   40101   10101   20101   30101   50101
 
     5056    4956    5055    5057    5156   15056
        0   40101   10101   20101   30101   50101
 
     5057    4957    5056    5058    5157   15057
        0   40101   10101   20101   30101   50101
 
     5058    4958    5057    5059    5158   15058
        0   40101   10101   20101   30101   50101
 
     5059    4959    5058    5060    5159   15059
        0   40101   10101   20101   30101   50101
 
     5060    4960    5059    5061    5160   15060
        0   40101   10101   20101   30101   50101
 
     5061    4961    5060    5062    5161   15061
        0   40101   10101   20101   30101   50101
 
     5062    4962    5061    5063    5162   15062
        0   40101   10101   20101   30101   50101
 
     5063    4963    5062    5163   15063
        0   40101   10101   30101   50101
 


 


 


 


 


 


 


 


 


 


 


 


 


 


 


 


 


 


 


 


 


 


 


 


 


 


 


 


 


 


 


 


 


 


 


 


 


 


 


 


 


 


 


 


 


 


 


 


 


 


 


 


 


 


 


 


 


 


 


 


 


 


 


 


 


 


 


 


 


 


 


 


 


 


 


 


 


 


 


 


 


 


 


 
     5147    5047    5148    5247   15147
        0   40101   20101   30101   50101
 
     5148    5048    5147    5149    5248   15148
        0   40101   10101   20101   30101   50101
 
     5149    5049    5148    5150    5249   15149
        0   40101   10101   20101   30101   50101
 
     5150    5050    5149    5151    5250   15150
        0   40101   10101   20101   30101   50101
 
     5151    5051    5150    5152    5251   15151
        0   40101   10101   20101   30101   50101
 
     5152    5052    5151    5153    5252   15152
        0   40101   10101   20101   30101   50101
 
     5153    5053    5152    5154    5253   15153
        0   40101   10101   20101   30101   50101
 
     5154    5054    5153    5155    5254   15154
        0   40101   10101   20101   30101   50101
 
     5155    5055    5154    5156    5255   15155
        0   40101   10101   20101   30101   50101
 
     5156    5056    5155    5157    5256   15156
        0   40101   10101   20101   30101   50101
 
     5157    5057    5156    5158    5257   15157
        0   40101   10101   20101   30101   50101
 
     5158    5058    5157    5159    5258   15158
        0   40101   10101   20101   30101   50101
 
     5159    5059    5158    5160    5259   15159
        0   40101   10101   20101   30101   50101
 
     5160    5060    5159    5161    5260   15160
        0   40101   10101   20101   30101   50101
 
     5161    5061    5160    5162    5261   15161
        0   40101   10101   20101   30101   50101
 
     5162    5062    5161    5163    5262   15162
        0   40101   10101   20101   30101   50101
 
     5163    5063    5162   15163
        0   40101   10101   50101
 


 


 


 


 


 


 


 


 


 


 


 


 


 


 


 


 


 


 


 


 


 


 


 


 


 


 


 


 


 


 


 


 


 


 


 


 


 


 


 


 


 


 


 


 


 


 


 


 


 


 


 


 


 


 


 


 


 


 


 


 


 


 


 


 


 


 


 


 


 


 


 


 


 


 


 


 


 


 


 


 


 


 


 
     5247    5147    5248    5347   15247
        0   40101   20101   30101   50101
 
     5248    5148    5247    5249    5348   15248
        0   40101   10101   20101   30101   50101
 
     5249    5149    5248    5250    5349   15249
        0   40101   10101   20101   30101   50101
 
     5250    5150    5249    5251    5350   15250
        0   40101   10101   20101   30101   50101
 
     5251    5151    5250    5252    5351   15251
        0   40101   10101   20101   30101   50101
 
     5252    5152    5251    5253    5352   15252
        0   40101   10101   20101   30101   50101
 
     5253    5153    5252    5254    5353   15253
        0   40101   10101   20101   30101   50101
 
     5254    5154    5253    5255    5354   15254
        0   40101   10101   20101   30101   50101
 
     5255    5155    5254    5256    5355   15255
        0   40101   10101   20101   30101   50101
 
     5256    5156    5255    5257    5356   15256
        0   40101   10101   20101   30101   50101
 
     5257    5157    5256    5258    5357   15257
        0   40101   10101   20101   30101   50101
 
     5258    5158    5257    5259    5358   15258
        0   40101   10101   20101   30101   50101
 
     5259    5159    5258    5260    5359   15259
        0   40101   10101   20101   30101   50101
 
     5260    5160    5259    5261    5360   15260
        0   40101   10101   20101   30101   50101
 
     5261    5161    5260    5262    5361   15261
        0   40101   10101   20101   30101   50101
 
     5262    5162    5261    5362   15262
        0   40101   10101   30101   50101
 


 


 


 


 


 


 


 


 


 


 


 


 


 


 


 


 


 


 


 


 


 


 


 


 


 


 


 


 


 


 


 


 


 


 


 


 


 


 


 


 


 


 


 


 


 


 


 


 


 


 


 


 


 


 


 


 


 


 


 


 


 


 


 


 


 


 


 


 


 


 


 


 


 


 


 


 


 


 


 


 


 


 


 
     5346    5347    5446   15346
        0   20101   30101   50101
 
     5347    5247    5346    5348    5447   15347
        0   40101   10101   20101   30101   50101
 
     5348    5248    5347    5349    5448   15348
        0   40101   10101   20101   30101   50101
 
     5349    5249    5348    5350    5449   15349
        0   40101   10101   20101   30101   50101
 
     5350    5250    5349    5351    5450   15350
        0   40101   10101   20101   30101   50101
 
     5351    5251    5350    5352    5451   15351
        0   40101   10101   20101   30101   50101
 
     5352    5252    5351    5353    5452   15352
        0   40101   10101   20101   30101   50101
 
     5353    5253    5352    5354    5453   15353
        0   40101   10101   20101   30101   50101
 
     5354    5254    5353    5355    5454   15354
        0   40101   10101   20101   30101   50101
 
     5355    5255    5354    5356    5455   15355
        0   40101   10101   20101   30101   50101
 
     5356    5256    5355    5357    5456   15356
        0   40101   10101   20101   30101   50101
 
     5357    5257    5356    5358    5457   15357
        0   40101   10101   20101   30101   50101
 
     5358    5258    5357    5359    5458   15358
        0   40101   10101   20101   30101   50101
 
     5359    5259    5358    5360    5459   15359
        0   40101   10101   20101   30101   50101
 
     5360    5260    5359    5361    5460   15360
        0   40101   10101   20101   30101   50101
 
     5361    5261    5360    5362    5461   15361
        0   40101   10101   20101   30101   50101
 
     5362    5262    5361   15362
        0   40101   10101   50101
 


 


 


 


 


 


 


 


 


 


 


 


 


 


 


 


 


 


 


 


 


 


 


 


 


 


 


 


 


 


 


 


 


 


 


 


 


 


 


 


 


 


 


 


 


 


 


 


 


 


 


 


 


 


 


 


 


 


 


 


 


 


 


 


 


 


 


 


 


 


 


 


 


 


 


 


 


 


 


 


 


 


 


 
     5446    5346    5447    5546   15446
        0   40101   20101   30101   50101
 
     5447    5347    5446    5448    5547   15447
        0   40101   10101   20101   30101   50101
 
     5448    5348    5447    5449    5548   15448
        0   40101   10101   20101   30101   50101
 
     5449    5349    5448    5450    5549   15449
        0   40101   10101   20101   30101   50101
 
     5450    5350    5449    5451    5550   15450
        0   40101   10101   20101   30101   50101
 
     5451    5351    5450    5452    5551   15451
        0   40101   10101   20101   30101   50101
 
     5452    5352    5451    5453    5552   15452
        0   40101   10101   20101   30101   50101
 
     5453    5353    5452    5454    5553   15453
        0   40101   10101   20101   30101   50101
 
     5454    5354    5453    5455    5554   15454
        0   40101   10101   20101   30101   50101
 
     5455    5355    5454    5456    5555   15455
        0   40101   10101   20101   30101   50101
 
     5456    5356    5455    5457    5556   15456
        0   40101   10101   20101   30101   50101
 
     5457    5357    5456    5458    5557   15457
        0   40101   10101   20101   30101   50101
 
     5458    5358    5457    5459    5558   15458
        0   40101   10101   20101   30101   50101
 
     5459    5359    5458    5460    5559   15459
        0   40101   10101   20101   30101   50101
 
     5460    5360    5459    5461    5560   15460
        0   40101   10101   20101   30101   50101
 
     5461    5361    5460    5561   15461
        0   40101   10101   30101   50101
 


 


 


 


 


 


 


 


 


 


 


 


 


 


 


 


 


 


 


 


 


 


 


 


 


 


 


 


 


 


 


 


 


 


 


 


 


 


 


 


 


 


 


 


 


 


 


 


 


 


 


 


 


 


 


 


 


 


 


 


 


 


 


 


 


 


 


 


 


 


 


 


 


 


 


 


 


 


 


 


 


 


 


 


 
     5546    5446    5547    5646   15546
        0   40101   20101   30101   50101
 
     5547    5447    5546    5548    5647   15547
        0   40101   10101   20101   30101   50101
 
     5548    5448    5547    5549    5648   15548
        0   40101   10101   20101   30101   50101
 
     5549    5449    5548    5550    5649   15549
        0   40101   10101   20101   30101   50101
 
     5550    5450    5549    5551    5650   15550
        0   40101   10101   20101   30101   50101
 
     5551    5451    5550    5552    5651   15551
        0   40101   10101   20101   30101   50101
 
     5552    5452    5551    5553    5652   15552
        0   40101   10101   20101   30101   50101
 
     5553    5453    5552    5554    5653   15553
        0   40101   10101   20101   30101   50101
 
     5554    5454    5553    5555    5654   15554
        0   40101   10101   20101   30101   50101
 
     5555    5455    5554    5556    5655   15555
        0   40101   10101   20101   30101   50101
 
     5556    5456    5555    5557    5656   15556
        0   40101   10101   20101   30101   50101
 
     5557    5457    5556    5558    5657   15557
        0   40101   10101   20101   30101   50101
 
     5558    5458    5557    5559    5658   15558
        0   40101   10101   20101   30101   50101
 
     5559    5459    5558    5560    5659   15559
        0   40101   10101   20101   30101   50101
 
     5560    5460    5559    5561    5660   15560
        0   40101   10101   20101   30101   50101
 
     5561    5461    5560    5661   15561
        0   40101   10101   30101   50101
 


 


 


 


 


 


 


 


 


 


 


 


 


 


 


 


 


 


 


 


 


 


 


 


 


 


 


 


 


 


 


 


 


 


 


 


 


 


 


 


 


 


 


 


 


 


 


 


 


 


 


 


 


 


 


 


 


 


 


 


 


 


 


 


 


 


 


 


 


 


 


 


 


 


 


 


 


 


 


 


 


 


 


 


 
     5646    5546    5647    5746   15646
        0   40101   20101   30101   50101
 
     5647    5547    5646    5648    5747   15647
        0   40101   10101   20101   30101   50101
 
     5648    5548    5647    5649    5748   15648
        0   40101   10101   20101   30101   50101
 
     5649    5549    5648    5650    5749   15649
        0   40101   10101   20101   30101   50101
 
     5650    5550    5649    5651    5750   15650
        0   40101   10101   20101   30101   50101
 
     5651    5551    5650    5652    5751   15651
        0   40101   10101   20101   30101   50101
 
     5652    5552    5651    5653    5752   15652
        0   40101   10101   20101   30101   50101
 
     5653    5553    5652    5654    5753   15653
        0   40101   10101   20101   30101   50101
 
     5654    5554    5653    5655    5754   15654
        0   40101   10101   20101   30101   50101
 
     5655    5555    5654    5656    5755   15655
        0   40101   10101   20101   30101   50101
 
     5656    5556    5655    5657    5756   15656
        0   40101   10101   20101   30101   50101
 
     5657    5557    5656    5658    5757   15657
        0   40101   10101   20101   30101   50101
 
     5658    5558    5657    5659    5758   15658
        0   40101   10101   20101   30101   50101
 
     5659    5559    5658    5660    5759   15659
        0   40101   10101   20101   30101   50101
 
     5660    5560    5659    5661    5760   15660
        0   40101   10101   20101   30101   50101
 
     5661    5561    5660   15661
        0   40101   10101   50101
 


 


 


 


 


 


 


 


 


 


 


 


 


 


 


 


 


 


 


 


 


 


 


 


 


 


 


 


 


 


 


 


 


 


 


 


 


 


 


 


 


 


 


 


 


 


 


 


 


 


 


 


 


 


 


 


 


 


 


 


 


 


 


 


 


 


 


 


 


 


 


 


 


 


 


 


 


 


 


 


 


 


 


 


 
     5746    5646    5747   15746
        0   40101   20101   50101
 
     5747    5647    5746    5748   15747
        0   40101   10101   20101   50101
 
     5748    5648    5747    5749    5848   15748
        0   40101   10101   20101   30101   50101
 
     5749    5649    5748    5750    5849   15749
        0   40101   10101   20101   30101   50101
 
     5750    5650    5749    5751    5850   15750
        0   40101   10101   20101   30101   50101
 
     5751    5651    5750    5752    5851   15751
        0   40101   10101   20101   30101   50101
 
     5752    5652    5751    5753    5852   15752
        0   40101   10101   20101   30101   50101
 
     5753    5653    5752    5754    5853   15753
        0   40101   10101   20101   30101   50101
 
     5754    5654    5753    5755    5854   15754
        0   40101   10101   20101   30101   50101
 
     5755    5655    5754    5756    5855   15755
        0   40101   10101   20101   30101   50101
 
     5756    5656    5755    5757    5856   15756
        0   40101   10101   20101   30101   50101
 
     5757    5657    5756    5758    5857   15757
        0   40101   10101   20101   30101   50101
 
     5758    5658    5757    5759    5858   15758
        0   40101   10101   20101   30101   50101
 
     5759    5659    5758    5760    5859   15759
        0   40101   10101   20101   30101   50101
 
     5760    5660    5759    5860   15760
        0   40101   10101   30101   50101
 


 


 


 


 


 


 


 


 


 


 


 


 


 


 


 


 


 


 


 


 


 


 


 


 


 


 


 


 


 


 


 


 


 


 


 


 


 


 


 


 


 


 


 


 


 


 


 


 


 


 


 


 


 


 


 


 


 


 


 


 


 


 


 


 


 


 


 


 


 


 


 


 


 


 


 


 


 


 


 


 


 


 


 


 


 


 


 
     5848    5748    5849   15848
        0   40101   20101   50101
 
     5849    5749    5848    5850   15849
        0   40101   10101   20101   50101
 
     5850    5750    5849    5851    5950   15850
        0   40101   10101   20101   30101   50101
 
     5851    5751    5850    5852    5951   15851
        0   40101   10101   20101   30101   50101
 
     5852    5752    5851    5853    5952   15852
        0   40101   10101   20101   30101   50101
 
     5853    5753    5852    5854    5953   15853
        0   40101   10101   20101   30101   50101
 
     5854    5754    5853    5855    5954   15854
        0   40101   10101   20101   30101   50101
 
     5855    5755    5854    5856    5955   15855
        0   40101   10101   20101   30101   50101
 
     5856    5756    5855    5857    5956   15856
        0   40101   10101   20101   30101   50101
 
     5857    5757    5856    5858    5957   15857
        0   40101   10101   20101   30101   50101
 
     5858    5758    5857    5859    5958   15858
        0   40101   10101   20101   30101   50101
 
     5859    5759    5858    5860    5959   15859
        0   40101   10101   20101   30101   50101
 
     5860    5760    5859    5960   15860
        0   40101   10101   30101   50101
 


 


 


 


 


 


 


 


 


 


 


 


 


 


 


 


 


 


 


 


 


 


 


 


 


 


 


 


 


 


 


 


 


 


 


 


 


 


 


 


 


 


 


 


 


 


 


 


 


 


 


 


 


 


 


 


 


 


 


 


 


 


 


 


 


 


 


 


 


 


 


 


 


 


 


 


 


 


 


 


 


 


 


 


 


 


 


 


 


 
     5950    5850    5951   15950
        0   40101   20101   50101
 
     5951    5851    5950    5952   15951
        0   40101   10101   20101   50101
 
     5952    5852    5951    5953    6052   15952
        0   40101   10101   20101   30101   50101
 
     5953    5853    5952    5954    6053   15953
        0   40101   10101   20101   30101   50101
 
     5954    5854    5953    5955    6054   15954
        0   40101   10101   20101   30101   50101
 
     5955    5855    5954    5956    6055   15955
        0   40101   10101   20101   30101   50101
 
     5956    5856    5955    5957    6056   15956
        0   40101   10101   20101   30101   50101
 
     5957    5857    5956    5958    6057   15957
        0   40101   10101   20101   30101   50101
 
     5958    5858    5957    5959    6058   15958
        0   40101   10101   20101   30101   50101
 
     5959    5859    5958    5960    6059   15959
        0   40101   10101   20101   30101   50101
 
     5960    5860    5959   15960
        0   40101   10101   50101
 


 


 


 


 


 


 


 


 


 


 


 


 


 


 


 


 


 


 


 


 


 


 


 


 


 


 


 


 


 


 


 


 


 


 


 


 


 


 


 


 


 


 


 


 


 


 


 


 


 


 


 


 


 


 


 


 


 


 


 


 


 


 


 


 


 


 


 


 


 


 


 


 


 


 


 


 


 


 


 


 


 


 


 


 


 


 


 


 


 


 


 
     6052    5952    6053   16052
        0   40101   20101   50101
 
     6053    5953    6052    6054   16053
        0   40101   10101   20101   50101
 
     6054    5954    6053    6055    6154   16054
        0   40101   10101   20101   30101   50101
 
     6055    5955    6054    6056    6155   16055
        0   40101   10101   20101   30101   50101
 
     6056    5956    6055    6057    6156   16056
        0   40101   10101   20101   30101   50101
 
     6057    5957    6056    6058    6157   16057
        0   40101   10101   20101   30101   50101
 
     6058    5958    6057    6059    6158   16058
        0   40101   10101   20101   30101   50101
 
     6059    5959    6058    6159   16059
        0   40101   10101   30101   50101
 


 


 


 


 


 


 


 


 


 


 


 


 


 


 


 


 


 


 


 


 


 


 


 


 


 


 


 


 


 


 


 


 


 


 


 


 


 


 


 


 


 


 


 


 


 


 


 


 


 


 


 


 


 


 


 


 


 


 


 


 


 


 


 


 


 


 


 


 


 


 


 


 


 


 


 


 


 


 


 


 


 


 


 


 


 


 


 


 


 


 


 


 


 


 
     6154    6054    6155   16154
        0   40101   20101   50101
 
     6155    6055    6154    6156   16155
        0   40101   10101   20101   50101
 
     6156    6056    6155    6157   16156
        0   40101   10101   20101   50101
 
     6157    6057    6156    6158    6257   16157
        0   40101   10101   20101   30101   50101
 
     6158    6058    6157    6159    6258   16158
        0   40101   10101   20101   30101   50101
 
     6159    6059    6158    6259   16159
        0   40101   10101   30101   50101
 


 


 


 


 


 


 


 


 


 


 


 


 


 


 


 


 


 


 


 


 


 


 


 


 


 


 


 


 


 


 


 


 


 


 


 


 


 


 


 


 


 


 


 


 


 


 


 


 


 


 


 


 


 


 


 


 


 


 


 


 


 


 


 


 


 


 


 


 


 


 


 


 


 


 


 


 


 


 


 


 


 


 


 


 


 


 


 


 


 


 


 


 


 


 


 


 


 
     6257    6157    6258   16257
        0   40101   20101   50101
 
     6258    6158    6257    6259   16258
        0   40101   10101   20101   50101
 
     6259    6159    6258   16259
        0   40101   10101   50101
 


 


 


 


 


 


 


 


 


 


 


 


 


 


 


 


 


 


 


 


 


 


 


 


 


 


 


 


 


 


 


 


 


 


 


 


 


 


 


 


 


 


 


 


 


 


 


 


 


 


 


 


 


 


 


 


 


 


 


 


 


 


 


 


 


 


 


 


 


 


 


 


 


 


 


 


 


 


 


 


 


 


 


 


 


 


 


 


 


 


 


 


 


 


 


 


 


 


 


 


 


 


 


 


 


 


 


 


 


 


 


 


 


 


 


 


 


 


 


 


 


 


 


 


 


 


 


 


 


 


 


 


 


 


 


 


 


 


 


 


 


 


 


 


 


 


 


 


 


 


 


 


 


 


 


 


 


 


 


 


 


 


 


 


 


 


 


 


 


 


 


 


 


 


 


 


 


 


 


 


 


 


 


 


 


 


 


 


 


 


 


 


 


 


 


 


 


 


 


 


 


 


 


 


 


 


 


 


 


 


 


 


 


 


 


 


 


 


 


 


 


 


 


 


 


 


 


 


 


 


 


 


 


 


 


 


 


 


 


 


 


 


 


 


 


 


 


 


 


 


 


 


 


 


 


 


 


 


 


 


 


 


 


 


 


 


 


 


 


 


 


 


 


 


 


 


 


 


 


 


 


 


 


 


 


 


 


 


 


 


 


 


 


 


 


 


 


 


 


 


 


 


 


 


 


 


 


 


 


 


 


 


 


 


 


 


 


 


 


 


 


 


 


 


 


 


 


 


 


 


 


 


 


 


 


 


 


 


 


 


 


 


 


 


 


 


 


 


 


 


 


 


 


 


 


 


 


 


 


 


 


 


 


 


 


 


 


 


 


 


 


 


 


 


 


 


 


 


 


 


 


 


 


 


 


 


 


 


 


 


 


 


 


 


 


 


 


 


 


 


 


 


 


 


 


 


 


 


 


 


 


 


 


 


 


 


 


 


 


 


 


 


 


 


 


 


 


 


 


 


 


 


 


 


 


 


 


 


 


 


 


 


 


 


 


 


 


 


 


 


 


 


 


 


 


 


 


 


 


 


 


 


 


 


 


 


 


 


 


 


 


 


 


 


 


 


 


 


 


 


 


 


 


 


 


 


 


 


 


 


 


 


 


 


 


 


 


 


 


 


 


 


 


 


 


 


 


 


 


 


 


 


 


 


 


 


 


 


 


 


 


 


 


 


 


 


 


 


 


 


 


 


 


 


 


 


 


 


 


 


 


 


 


 


 


 


 


 


 


 


 


 


 


 


 


 


 


 


 


 


 


 


 


 


 


 


 


 


 


 


 


 


 


 


 


 


 


 


 


 


 


 


 


 


 


 


 


 


 


 


 


 


 


 


 


 


 


 


 


 


 


 


 


 


 


 


 


 


 


 


 


 


 


 


 


 


 


 


 


 


 


 


 


 


 


 


 


 


 


 


 


 


 


 


 


 


 


 


 


 


 


 


 


 


 


 


 


 


 


 


 


 


 


 


 


 


 


 


 


 


 


 


 


 


 


 


 


 


 


 


 


 


 


 


 


 


 


 


 


 


 


 


 


 


 


 


 


 


 


 


 


 


 


 


 


 


 


 


 


 


 


 


 


 


 


 


 


 


 


 


 


 


 


 


 


 


 


 


 


 


 


 


 


 


 


 


 


 


 


 


 


 


 


 


 


 


 


 


 


 


 


 


 


 


 


 


 


 


 


 


 


 


 


 


 


 


 


 


 


 


 


 


 


 


 


 


 


 


 


 


 


 


 


 


 


 


 


 


 


 


 


 


 


 


 


 


 


 


 


 


 


 


 


 


 


 


 


 


 


 


 


 


 


 


 


 


 


 


 


 


 


 


 


 


 


 


 


 


 


 


 


 


 


 


 


 


 


 


 


 


 


 


 


 


 


 


 


 


 


 


 


 


 


 


 


 


 


 


 


 


 


 


 


 


 


 


 


 


 


 


 


 


 


 


 


 


 


 


 


 


 


 


 


 


 


 


 


 


 


 


 


 


 


 


 


 


 


 


 


 


 


 


 


 


 


 


 


 


 


 


 


 


 


 


 


 


 


 


 


 


 


 


 


 


 


 


 


 


 


 


 


 


 


 


 


 


 


 


 


 


 


 


 


 


 


 


 


 


 


 


 


 


 


 


 


 


 


 


 


 


 


 


 


 


 


 


 


 


 


 


 


 


 


 


 


 


 


 


 


 


 


 


 


 


 


 


 


 


 


 


 


 


 


 


 


 


 


 


 


 


 


 


 


 


 


 


 


 


 


 


 


 


 


 


 


 


 


 


 


 


 


 


 


 


 


 


 


 


 


 


 


 


 


 


 


 


 


 


 


 


 


 


 


 


 


 


 


 


 


 


 


 


 


 


 


 


 


 


 


 


 


 


 


 


 


 


 


 


 


 


 


 


 


 


 


 


 


 


 


 


 


 


 


 


 


 


 


 


 


 


 


 


 


 


 


 


 


 


 


 


 


 


 


 


 


 


 


 


 


 


 


 


 


 


 


 


 


 


 


 


 


 


 


 


 


 


 


 


 


 


 


 


 


 


 


 


 


 


 


 


 


 


 


 


 


 


 


 


 


 


 


 


 


 


 


 


 


 


 


 


 


 


 


 


 


 


 


 


 


 


 


 


 


 


 


 


 


 


 


 


 


 


 


 


 


 


 


 


 


 


 


 


 


 


 


 


 


 


 


 


 


 


 


 


 


 


 


 


 


 


 


 


 


 


 


 


 


 


 


 


 


 


 


 


 


 


 


 


 


 


 


 


 


 


 


 


 


 


 


 


 


 


 


 


 


 


 


 


 


 


 


 


 


 


 


 


 


 


 


 


 


 


 


 


 


 


 


 


 


 


 


 


 


 


 


 


 


 


 


 


 


 


 


 


 


 


 


 


 


 


 


 


 


 


 


 


 


 


 


 


 


 


 


 


 


 


 


 


 


 


 


 


 


 


 


 


 


 


 


 


 


 


 


 


 


 


 


 


 


 


 


 


 


 


 


 


 


 


 


 


 


 


 


 


 


 


 


 


 


 


 


 


 


 


 


 


 


 


 


 


 


 


 


 


 


 


 


 


 


 


 


 


 


 


 


 


 


 


 


 


 


 


 


 


 


 


 


 


 


 


 


 


 


 


 


 


 


 


 


 


 


 


 


 


 


 


 


 


 


 


 


 


 


 


 


 


 


 


 


 


 


 


 


 


 


 


 


 


 


 


 


 


 


 


 


 


 


 


 


 


 


 


 


 


 


 


 


 


 


 


 


 


 


 


 


 


 


 


 


 


 


 


 


 


 


 


 


 


 


 


 


 


 


 


 


 


 


 


 


 


 


 


 


 


 


 


 


 


 


 


 


 


 


 


 


 


 


 


 


 


 


 


 


 


 


 


 


 


 


 


 


 


 


 


 


 


 


 


 


 


 


 


 


 


 


 


 


 


 


 


 


 


 


 


 


 


 


 


 


 


 


 


 


 


 


 


 


 


 


 


 


 


 


 


 


 


 


 


 


 


 


 


 


 


 


 


 


 


 


 


 


 


 


 


 


 


 


 


 


 


 


 


 


 


 


 


 


 


 


 


 


 


 


 


 


 


 


 


 


 


 


 


 


 


 


 


 


 


 


 


 


 


 


 


 


 


 


 


 


 


 


 


 


 


 


 


 


 


 


 


 


 


 


 


 


 


 


 


 


 


 


 


 


 


 


 


 


 


 


 


 


 


 


 


 


 


 


 


 


 


 


 


 


 


 


 


 


 


 


 


 


 


 


 


 


 


 


 


 


 


 


 


 


 


 


 


 


 


 


 


 


 


 


 


 


 


 


 


 


 


 


 


 


 


 


 


 


 


 


 


 


 


 


 


 


 


 


 


 


 


 


 


 


 


 


 


 


 


 


 


 


 


 


 


 


 


 


 


 


 


 


 


 


 


 


 


 


 


 


 


 


 


 


 


 


 


 


 


 


 


 


 


 


 


 


 


 


 


 


 


 


 


 


 


 


 


 


 


 


 


 


 


 


 


 


 


 


 


 


 


 


 


 


 


 


 


 


 


 


 


 


 


 


 


 


 


 


 


 


 


 


 


 


 


 


 


 


 


 


 


 


 


 


 


 


 


 


 


 


 


 


 


 


 


 


 


 


 


 


 


 


 


 


 


 


 


 


 


 


 


 


 


 


 


 


 


 


 


 


 


 


 


 


 


 


 


 


 


 


 


 


 


 


 


 


 


 


 


 


 


 


 


 


 


 


 


 


 


 


 


 


 


 


 


 


 


 


 


 


 


 


 


 


 


 


 


 


 


 


 


 


 


 


 


 


 


 


 


 


 


 


 


 


 


 


 


 


 


 


 


 


 


 


 


 


 


 


 


 


 


 


 


 


 


 


 


 


 


 


 


 


 


 


 


 


 


 


 


 


 


 


 


 


 


 


 


 


 


 


 


 


 


 


 


 


 


 


 


 


 


 


 


 


 


 


 


 


 


 


 


 


 


 


 


 


 


 


 


 


 


 


 


 


 


 


 


 


 


 


 


 


 


 


 


 


 


 


 


 


 


 


 


 


 


 


 


 


 


 


 


 


 


 


 


 


 


 


 


 


 


 


 


 


 


 


 


 


 


 


 


 


 


 


 


 


 


 


 


 


 


 


 


 


 


 


 


 


 


 


 


 


 


 


 


 


 


 


 


 


 


 


 


 


 


 


 


 


 


 


 


 


 


 


 


 


 


 


 


 


 


 


 


 


 


 


 


 


 


 


 


 


 


 


 


 


 


 


 


 


 


 


 


 


 


 


 


 


 


 


 


 


 


 


 


 


 


 


 


 


 


 


 


 


 


 


 


 


 


 


 


 


 


 


 


 


 


 


 


 


 


 


 


 


 


 


 


 


 


 


 


 


 


 


 


 


 


 


 


 


 


 


 


 


 


 


 


 


 


 


 


 


 


 


 


 


 


 


 


 


 


 


 


 


 


 


 


 


 


 


 


 


 


 


 


 


 


 


 


 


 


 


 


 


 


 


 


 


 


 


 


 


 


 


 


 


 


 


 


 


 


 


 


 


 


 


 


 


 


 


 


 


 


 


 


 


 


 


 


 


 


 


 


 


 


 


 


 


 


 


 


 


 


 


 


 


 


 


 


 


 


 


 


 


 


 


 


 


 


 


 


 


 


 


 


 


 


 


 


 


 


 


 


 


 


 


 


 


 


 


 


 


 


 


 


 


 


 


 


 


 


 


 


 


 


 


 


 


 


 


 


 


 


 


 


 


 


 


 


 


 


 


 


 


 


 


 


 


 


 


 


 


 


 


 


 


 


 


 


 


 


 


 


 


 


 


 


 


 


 


 


 


 


 


 


 


 


 


 


 


 


 


 


 


 


 


 


 


 


 


 


 


 


 


 


 


 


 


 


 


 


 


 


 


 


 


 


 


 


 


 


 


 


 


 


 


 


 


 


 


 


 


 


 


 


 


 


 


 


 


 


 


 


 


 


[...]
 
   395852  385852  395752  395851  395853  395952
        0   60101   40101   10101   20101   30101
 
   395853  385853  395753  395852  395854  395953
        0   60101   40101   10101   20101   30101
 
   395854  385854  395754  395853  395855  395954
        0   60101   40101   10101   20101   30101
 
   395855  385855  395755  395854  395856  395955
        0   60101   40101   10101   20101   30101
 
   395856  385856  395756  395855  395857  395956
        0   60101   40101   10101   20101   30101
 
   395857  385857  395757  395856  395858  395957
        0   60101   40101   10101   20101   30101
 
   395858  385858  395758  395857  395859  395958
        0   60101   40101   10101   20101   30101
 
   395859  385859  395759  395858  395860  395959
        0   60101   40101   10101   20101   30101
 
   395860  385860  395760  395859  395960
        0   60101   40101   10101   30101
 


 


 


 


 


 


 


 


 


 


 


 


 


 


 


 


 


 


 


 


 


 


 


 


 


 


 


 


 


 


 


 


 


 


 


 


 


 


 


 


 


 


 


 


 


 


 


 


 


 


 


 


 


 


 


 


 


 


 


 


 


 


 


 


 


 


 


 


 


 


 


 


 


 


 


 


 


 


 


 


 


 


 


 


 


 


 


 


 


 
   395950  385950  395850  395951
        0   60101   40101   20101
 
   395951  385951  395851  395950  395952
        0   60101   40101   10101   20101
 
   395952  385952  395852  395951  395953  396052
        0   60101   40101   10101   20101   30101
 
   395953  385953  395853  395952  395954  396053
        0   60101   40101   10101   20101   30101
 
   395954  385954  395854  395953  395955  396054
        0   60101   40101   10101   20101   30101
 
   395955  385955  395855  395954  395956  396055
        0   60101   40101   10101   20101   30101
 
   395956  385956  395856  395955  395957  396056
        0   60101   40101   10101   20101   30101
 
   395957  385957  395857  395956  395958  396057
        0   60101   40101   10101   20101   30101
 
   395958  385958  395858  395957  395959  396058
        0   60101   40101   10101   20101   30101
 
   395959  385959  395859  395958  395960  396059
        0   60101   40101   10101   20101   30101
 
   395960  385960  395860  395959
        0   60101   40101   10101
 


 


 


 


 


 


 


 


 


 


 


 


 


 


 


 


 


 


 


 


 


 


 


 


 


 


 


 


 


 


 


 


 


 


 


 


 


 


 


 


 


 


 


 


 


 


 


 


 


 


 


 


 


 


 


 


 


 


 


 


 


 


 


 


 


 


 


 


 


 


 


 


 


 


 


 


 


 


 


 


 


 


 


 


 


 


 


 


 


 


 


 
   396052  386052  395952  396053
        0   60101   40101   20101
 
   396053  386053  395953  396052  396054
        0   60101   40101   10101   20101
 
   396054  386054  395954  396053  396055  396154
        0   60101   40101   10101   20101   30101
 
   396055  386055  395955  396054  396056  396155
        0   60101   40101   10101   20101   30101
 
   396056  386056  395956  396055  396057  396156
        0   60101   40101   10101   20101   30101
 
   396057  386057  395957  396056  396058  396157
        0   60101   40101   10101   20101   30101
 
   396058  386058  395958  396057  396059  396158
        0   60101   40101   10101   20101   30101
 
   396059  386059  395959  396058  396159
        0   60101   40101   10101   30101
 


 


 


 


 


 


 


 


 


 


 


 


 


 


 


 


 


 


 


 


 


 


 


 


 


 


 


 


 


 


 


 


 


 


 


 


 


 


 


 


 


 


 


 


 


 


 


 


 


 


 


 


 


 


 


 


 


 


 


 


 


 


 


 


 


 


 


 


 


 


 


 


 


 


 


 


 


 


 


 


 


 


 


 


 


 


 


 


 


 


 


 


 


 


 
   396154  386154  396054  396155
        0   60101   40101   20101
 
   396155  386155  396055  396154  396156
        0   60101   40101   10101   20101
 
   396156  386156  396056  396155  396157
        0   60101   40101   10101   20101
 
   396157  386157  396057  396156  396158  396257
        0   60101   40101   10101   20101   30101
 
   396158  386158  396058  396157  396159  396258
        0   60101   40101   10101   20101   30101
 
   396159  386159  396059  396158  396259
        0   60101   40101   10101   30101
 


 


 


 


 


 


 


 


 


 


 


 


 


 


 


 


 


 


 


 


 


 


 


 


 


 


 


 


 


 


 


 


 


 


 


 


 


 


 


 


 


 


 


 


 


 


 


 


 


 


 


 


 


 


 


 


 


 


 


 


 


 


 


 


 


 


 


 


 


 


 


 


 


 


 


 


 


 


 


 


 


 


 


 


 


 


 


 


 


 


 


 


 


 


 


 


 


 
   396257  386257  396157  396258
        0   60101   40101   20101
 
   396258  386258  396158  396257  396259
        0   60101   40101   10101   20101
 
   396259  386259  396159  396258
        0   60101   40101   10101
 


 


 


 


 


 


 


 


 


 


 


 


 


 


 


 


 


 


 


 


 


 


 


 


 


 


 


 


 


 


 


 


 


 


 


 


 


 


 


 


 


 


 


 


 


 


 


 


 


 


 


 


 


 


 


 


 


 


 


 


 


 


 


 


 


 


 


 


 


 


 


 


 


 


 


 


 


 


 


 


 


 


 


 


 


 


 


 


 


 


 


 


 


 


 


 


 


 


 


 


 


 


 


 


 


 


 


 


 


 


 


 


 


 


 


 


 


 


 


 


 


 


 


 


 


 


 


 


 


 


 


 


 


 


 


 


 


 


 


 


 


 


 


 


 


 


 


 


 


 


 


 


 


 


 


 


 


 


 


 


 


 


 


 


 


 


 


 


 


 


 


 


 


 


 


 


 


 


 


 


 


 


 


 


 


 


 


 


 


 


 


 


 


 


 


 


 


 


 


 


 


 


 


 


 


 


 


 


 


 


 


 


 


 


 


 


 


 


 


 


 


 


 


 


 


 


 


 


 


 


 


 


 


 


 


 


 


 


 


 


 


 


 


 


 


 


 


 


 


 


 


 


 


 


 


 


 


 


 


 


 


 


 


 


 


 


 


 


 


 


 


 


 


 


 


 


 


 


 


 


 


 


 


 


 


 


 


 


 


 


 


 


 


 


 


 


 


 


 


 


 


 


 


 


 


 


 


 


 


 


 


 


 


 


 


 


 


 


 


 


 


 


 


 


 


 


 


 


 


 


 


 


 


 


 


 


 


 


 


 


 


 


 


 


 


 


 


 


 


 


 


 


 


 


 


 


 


 


 


 


 


 


 


 


 


 


 


 


 


 


 


 


 


 


 


 


 


 


 


 


 


 


 


 


 


 


 


 


 


 


 


 


 


 


 


 


 


 


 


 


 


 


 


 


 


 


 


 


 


 


 


 


 


 


 


 


 


 


 


 


 


 


 


 


 


 


 


 


 


 


 


 


 


 


 


 


 


 


 


 


 


 


 


 


 


 


 


 


 


 


 


 


 


 


 


 


 


 


 


 


 


 


 


 


 


 


 


 


 


 


 


 


 


 


 


 


 


 


 


 


 


 


 


 


 


 


 


 


 


 


 


 


 


 


 


 


 


 


 


 


 


 


 


 


 


 


 


 


 


 


 


 


 


 


 


 


 


 


 


 


 


 


 


 


 


 


 


 


 


 


 


 


 


 


 


 


 


 


 


 


 


 


 


 


 


 


 


 


 


 


 


 


 


 


 


 


 


 


 


 


 


 


 


 


 


 


 


 


 


 


 


 


 


 


 


 


 


 


 


 


 


 


 


 


 


 


 


 


 


 


 


 


 


 


 


 


 


 


 


 


 


 


 


 


 


 


 


 


 


 


 


 


 


 


 


 


 


 


 


 


 


 


 


 


 


 


 


 


 


 


 


 


 


 


 


 


 


 


 


 


 


 


 


 


 


 


 


 


 


 


 


 


 


 


 


 


 


 


 


 


 


 


 


 


 


 


 


 


 


 


 


 


 


 


 


 


 


 


 


 


 


 


 


 


 


 


 


 


 


 


 


 


 


 


 


 


 


 


 


 


 


 


 


 


 


 


 


 


 


 


 


 


 


 


 


 


 


 


 


 


 


 


 


 


 


 


 


 


 


 


 


 


 


 


 


 


 


 


 


 


 


 


 


 


 


 


 


 


 


 


 


 


 


 


 


 


 


 


 


 


 


 


 


 


 


 


 


 


 


 


 


 


 


 


 


 


 


 


 


 


 


 


 


 


 


 


 


 


 


 


 


 


 


 


 


 


 


 


 


 


 


 


 


 


 


 


 


 


 


 


 


 


 


 


 


 


 


 


 


 


 


 


 


 


 


 


 


 


 


 


 


 


 


 


 


 


 


 


 


 


 


 


 


 


 


 


 


 


 


 


 


 


 


 


 


 


 


 


 


 


 


 


 


 


 


 


 


 


 


 


 


 


 


 


 


 


 


 


 


 


 


 


 


 


 


 


 


 


 


 


 


 


 


 


 


 


 


 


 


 


 


 


 


 


 


 


 


 


 


 


 


 


 


 


 


 


 


 


 


 


 


 


 


 


 


 


 


 


 


 


 


 


 


 


 


 


 


 


 


 


 


 


 


 


 


 


 


 


 


 


 


 


 


 


 


 


 


 


 


 


 


 


 


 


 


 


 


 


 


 


 


 


 


 


 


 


 


 


 


 


 


 


 


 


 


 


 


 


 


 


 


 


 


 


 


 


 


 


 


 


 


 


 


 


 


 


 


 


 


 


 


 


 


 


 


 


 


 


 


 


 


 


 


 


 


 


 


 


 


 


 


 


 


 


 


 


 


 


 


 


 


 


 


 


 


 


 


 


 


 


 


 


 


 


 


 


 


 


 


 


 


 


 


 


 


 


 


 


 


 


 


 


 


 


 


 


 


 


 


 


 


 


 


 


 


 


 


 


 


 


 


 


 


 


 


 


 


 


 


 


 


 


 


 


 


 


 


 


 


 


 


 


 


 


 


 


 


 


 


 


 


 


 


 


 


 


 


 


 


 


 


 


 


 


 


 


 


 


 


 


 


 


 


 


 


 


 


 


 


 


 


 


 


 


 


 


 


 


 


 


 


 


 


 


 


 


 


 


 


 


 


 


 


 


 


 


 


 


 


 


 


 


 


 


 


 


 


 


 


 


 


 


 


 


 


 


 


 


 


 


 


 


 


 


 


 


 


 


 


 


 


 


 


 


 


 


 


 


 


 


 


 


 


 


 


 


 


 


 


 


 


 


 


 


 


 


 


 


 


 


 


 


 


 


 


 


 


 


 


 


 


 


 


 


 


 


 


 


 


 


 


 


 


 


 


 


 


 


 


 


 


 


 


 


 


 


 


 


 


 


 


 


 


 


 


 


 


 


 


 


 


 


 


 


 


 


 


 


 


 


 


 


 


 


 


 


 


 


 


 


 


 


 


 


 


 


 


 


 


 


 


 


 


 


 


 


 


 


 


 


 


 


 


 


 


 


 


 


 


 


 


 


 


 


 


 


 


 


 


 


 


 


 


 


 


 


 


 


 


 


 


 


 


 


 


 


 


 


 


 


 


 


 


 


 


 


 


 


 


 


 


 


 


 


 


 


 


 


 


 


 


 


 


 


 


 


 


 


 


 


 


 


 


 


 


 


 


 


 


 


 


 


 


 


 


 


 


 


 


 


 


 


 


 


 


 


 


 


 


 


 


 


 


 


 


 


 


 


 


 


 


 


 


 


 


 


 


 


 


 


 


 


 


 


 


 


 


 


 


 


 


 


 


 


 


 


 


 


 


 


 


 


 


 


 


 


 


 


 


 


 


 


 


 


 


 


 


 


 


 


 


 


 


 


 


 


 


 


 


 


 


 


 


 


 


 


 


 


 


 


 


 


 


 


 


 


 


 


 


 


 


 


 


 


 


 


 


 


 


 


 


 


 


 


 


 


 


 


 


 


 


 


 


 


 


 


 


 


 


 


 


 


 


 


 


 


 


 


 


 


 


 


 


 


 


 


 


 


 


 


 


 


 


 


 


 


 


 


 


 


 


 


 


 


 


 


 


 


 


 


 


 


 


 


 


 


 


 


 


 


 


 


 


 


 


 


 


 


 


 


 


 


 


 


 


 


 


 


 


 


 


 


 


 


 


 


 


 


 


 


 


 


 


 


 


 


 


 


 


 


 


 


 


 


 


 


 


 


 


 


 


 


 


 


 


 


 


 


 


 


 


 


 


 


 


 


 


 


 


 


 


 


 


 


 


 


 


 


 


 


 


 


 


 


 


 


 


 


 


 


 


 


 


 


 


 


 


 


 


 


 


 


 


 


 


 


 


 


 


 


 


 


 


 


 


 


 


 


 


 


 


 


 


 


 


 


 


 


 


 


 


 


 


 


 


 


 


 


 


 


 


 


 


 


 


 


 


 


 


 


 


 


 


 


 


 


 


 


 


 


 


 


 


 


 


 


 


 


 


 


 


 


 


 


 


 


 


 


 


 


 


 


 


 


 


 


 


 


 


 


 


 


 


 


 


 


 


 


 


 


 


 


 


 


 


 


 


 


 


 


 


 


 


 


 


 


 


 


 


 


 


 


 


 


 


 


 


 


 


 


 


 


 


 


 


 


 


 


 


 


 


 


 


 


 


 


 


 


 


 


 


 


 


 


 


 


 


 


 


 


 


 


 


 


 


 


 


 


 


 


 


 


 


 


 


 


 


 


 


 


 


 


 


 


 


 


 


 


 


 


 


 


 


 


 


 


 


 


 


 


 


 


 


 


 


 


 


 


 


 


 


 


 


 


 


 


 


 


 


 


 


 


 


 


 


 


 


 


 


 


 


 


 


 


 


 


 


 


 


 


 


 


 


 


 


 


 


 


 


 


 


 


 


 


 


 


 


 


 


 


 


 


 


 


 


 


 


 


 


 


 


 


 


 


 


 


 


 


 


 


 


 


 


 


 


 


 


 


 


 


 


 


 


 


 


 


 


 


 


 


 


 


 


 


 


 


 


 


 


 


 


 


 


 


 


 


 


 


 


 


 


 


 


 


 


 


 


 


 


 


 


 


 


 


 


 


 


 


 


 


 


 


 


 


 


 


 


 


 


 


 


 


 


 


 


 


 


 


 


 


 


 


 


 


 


 


 


 


 


 


 


 


 


 


 


 


 


 


 


 


 


 


 


 


 


 


 


 


 


 


 


 


 


 


 


 


 


 


 


 


 


 


 


 


 


 


 


 


 


 


 


 


 


 


 


 


 


 


 


 


 


 


 


 


 


 


 


 


 


 


 


 


 


 


 


 


 


 


 


 


 


 


 


 


 


 


 


 


 


 


 


 


 


 


 


 


 


 


 


 


 


 


 


 


 


 


 


 


 


 


 


 


 


 


 


 


 


 


 


 


 


 


 


 


 


 


 


 


 


 


 


 


 


 


 


 


 


 


 


 


 


 


 


 


 


 


 


 


 


 


 


 


 


 


 


 


 


 


 


 


 


 


 


 


 


 


 


 


 


 


 


 


 


 


 


 


 


 


 


 


 


 


 


 


 


 


 


 


 


 


 


 


 


 


 


 


 


 


 


 


 


 


 


 


 


 


 


 


 


 


 


 


 


 


 


 


 


 


 


 


 


 


 


 


 


 


 


 


 


 


 


 


 


 


 


 


 


 


 


 


 


 


 


 


 


 


 


 


 


 


 


 


 


 


 


 


 


 


 


 


 


 


 


 


 


 


 


 


 


 


 


 


 


 


 


 


 


 


 


 


 


 


 


 


 


 


 


 


 


 


 


 


 


 


 


 


 


 


 


 


 


 


 


 


 


 


 


 


 


 


 


 


 


 


 


 


 


 


 


 


 


 


 


 


 


 


 


 


 


 


 


 


 


 


 


 


 


 


 


 


 


 


 


 


 


 


 


 


 


 


 


 


 


 


 


 


 


 


 


 


 


 


 


 


 


 


 


 


 


 


 


 


 


 


 


 


 


 


 


 


 


 


 


 


 


 


 


 


 


 


 


 


 


 


 


 


 


 


 


 


 


 


 


 


 


 


 


 


 


 


 


 


 


 


 


 


 


 


 


 


 


 


 


 


 


 


 


 


 


 


 


 


 


 


 


 


 


 


 


 


 


 


 


 


 


 


 


 


 


 


 


 


 


 


 


 


 


 


 


 


 


 


 


 


 


 


 


 


 


 


 


 


 


 


 


 


 


 


 


 


 


 


 


 


 


 


 


 


 


 


 


 


 


 


 


 


 


 


 


 


 


 


 


 


 


 


 


 


 


 


 


 


 


 


 


 


 


 


 


 


 


 


 


 


 


 


 


 


 


 


 


 


 


 


 


 


 


 


 


 


 


 


 


 


 


 


 


 


 


 


 


 


 


 


 


 


 


 


 


 


 


 


 


 


 


 


 


 


 


 


 


 


 


 


 


 


 


 


 


 


 


 


 


 


 


 


 


 


 


 


 


 


 


 


 


 


 


 


 


 


 


 


 


 


 


 


 


 


 


 


 


 


 


 


 


 


 


 


 


 


 


 


 


 


 


 


 


 


 


 


 


 


 


 


 


 


 


 


 


 


 


 


 


 


 


 


 


 


 


 


 


 


 


 


 


 


 


 


 


 


 


 


 


 


 


 


 


 


 


 


 


 


 


 


 


 


 


 


 


 


 


 


 


 


 


 


 


 


 


 


 


 


 


 


 


 


 


 


 


 


 


 


 


 


 


 


 


 


 


 


 


 


 


 


 


 


 


 


 


 


 


 


 


 


 


 


 


 


 


 


 


 


 


 


 


 


 


 


 


 


 


 


 


 


 


 


 


 


 


 


 


 


 


 


 


 


 


 


 


 


 


 


 


 


 


 


 


 


 


 


 


 


 


 


 


 


 


 


 


 


 


 


 


 


 


 


 


 


 


 


 


 


 


 


 


 


 


 


 


 


 


 


 


 


 


 


 


 


 


 


 


 


 


 


 


 


 


 


 


 


 


 


 


 


 


 


 


 


 


 


 


 


 


 


 


 


 


 


 


 


 


 


 


 


 


 


 


 


 


 


 


 


 


 


 


 


 


 


 


 


 


 


 


 


 


 


 


 


 


 


 


 


 


 


 


 


 


 


 


 


 


 


 


 


 


 


 


 


 


 


 


 


 


 


 


 


 


 


 


 


 


 


 


 


 


 


 


 


 


 


 


 


 


 


 


 


 


 


 


 


 


 


 


 


 


 


 


 


 


 


 


 


 


 


 


 


 


 


 


 


 


 


 


 


 


 


 


 


 


 


 


 


 


 


 


 


 


 


 


 


 


 


 


 


 


 


 


 


 


 


 


 


 


 


 


 


 


 


 


 


 


 


 


 


 


 


 


 


 


 


 


 


 


 


 


 


 


 


 


 


 


 


 


 


 


 


 


 


 


 


 


 


 


 


 


 


 


 


 


 


 


 


 


 


 


 


 


 


 


 


 


 


 


 


 


 


 


 


 


 


 


 


 


 


 


 


 


 


 


 


 


 


 


 


 


 


 


 


 


 


 


 


 


 


 


 


 


 


 


 


 


 


 


 


 


 


 


 


 


 


 


 


 


 


 


 


 


 


 


 


 


 


 


 


 


 


 


 


 


 


 


 


 


 


 


 


 


 


 


 


 


 


 


 


 


 


 


 


 


 


 


 


 


 


 


 


 


 


 


 


 


 


 


 


 


 


 


 


 


 


 


 


 


 


 


 


 


 


 


 


 


 


 


 


 


 


 


 


 


 


 


 


 


 


 


 


 


 


 


 


 


 


 


 


 


 


 


 


 


 


 


 


 


 


 


 


 


 


 


 


 


 


 


 


 


 


 


 


 


 


 


 


 


 


 


 


 


 


 


 


 


 


 


 


 


 


 


 


 


 


 


 


 


 


 


 


 


 


 


 


 


 


 


 


 


 


 


 


 


 


 


 


 


 


 


 


 


 


 


 


 


 


 


 


 


 


 


 


 


 


 


 


 


 


 


 


 


 


 


 


 


 


 


 


 


 


 


 


 


 


 


 


 


 


 


 


 


 


 


 


 


 


 


 


 


 


 


 


 


 


 


 


 


 


 


 


 


 


 


 


 


 


 


 


 


 


 


 


 


 


 


 


 


 


 


 


 


 


 


 


 


 


 


 


 


 


 


 


 


 


 


 


 


 


 


 


 


 


 


 


 


 


 


 


 


 


 


 


 


 


 


 


 


 


 


 


 


 


 


 


 


 


 


 


 


 


 


 


 


 


 


 


 


 


 


 


 


 


 


 


 


 


 


 


 


 


 


 


 


 


 


 


 


 


 


 


 


 


 


 


 


 


 


 


 


 


 


 


 


 


 


 


 


 


 


 


 


 


 


 


 


 


 


 


 


 


 


 


 


 


 


 


 


 


 


 


 


 


 


 


 


 


 


 


 


 


 


 


 


 


 


 


 


 


 


 


 


 


 


 


 


 


 


 


 


 


 


 


 


 


 


 


 


 


 


 


 


 


 


 


 


 


 


 


 


 


 


 


 


 


 


 


 


 


 


 


 


 


 


 


 


 


 


 


 


 


 


 


 


 


 


 


 


 


 


 


 


 


 


 


 


 


 


 


 


 


 


 


 


 


 


 


 


 


 


 


 


 


 


 


 


 


 


 


 


 


 


 


 


 


 


 


 


 


 


 


 


 


 


 


 


 


 


 


 


 


 


 


 


 


 


 


 


 


 


 


 


 


 


 


 


 


 


 


 


 


 


 


 


 


 


 


 


 


 


 


 


 


 


 


 


 


 


 


 


 


 


 


 


 


 


 


 


 


 


 


 


 


 


 


 


 


 


 


 


 


 


 


 


 


 


 


 


 


 


 


 


 


 


 


 


 


 


 


 


 


 


 


 


 


 


 


 


 


 


 


 


 


 


 


 


 


 


 


 


 


 


 


 


 


 


 
Allocate budget reader component.
Open budget file in budget reader.
