MODPATH 5.0                                                                                                                                                                                                                                                     

 FILE UNIT NUMBER  10 HAS BEEN CONNECTED TO <CH00365_MODPATH_particle set.mdf>
 FILE UNIT NUMBER  19 HAS BEEN CONNECTED TO <C:\Users\u4eeegtm\OneDrive - US Army Corps of Engineers\Desktop\2024-12-11_Hyporheic_Sites\GMS models to review\CH00365 - Copy\GMS\CH00365_MODFLOW\CH00365.dis>
 FILE UNIT NUMBER  71 WILL BE CONNECTED TO <CH00365_MODPATH_particle set.loc>
 FILE UNIT NUMBER  75 WILL BE CONNECTED TO <CH00365_MODPATH_particle set.ept>
 FILE UNIT NUMBER  76 WILL BE CONNECTED TO <CH00365_MODPATH_particle set.pth>
 FILE UNIT NUMBER 730 HAS BEEN CONNECTED TO <C:\Users\u4eeegtm\OneDrive - US Army Corps of Engineers\Desktop\2024-12-11_Hyporheic_Sites\GMS models to review\CH00365 - Copy\GMS\CH00365_MODFLOW\CH00365.hed>
 FILE UNIT NUMBER  40 HAS BEEN CONNECTED TO <C:\Users\u4eeegtm\OneDrive - US Army Corps of Engineers\Desktop\2024-12-11_Hyporheic_Sites\GMS models to review\CH00365 - Copy\GMS\CH00365_MODFLOW\CH00365.ccf>
 

 DISCRETIZATION INPUT DATA READ FROM UNIT 19
 # MF2K DISCRETIZATION FILE
 #
 #
 # NLAY NROW NCOL NPER TIMEUNITS LENUNITS
   40 LAYERS       141 ROWS       107 COLUMNS
   1 STRESS PERIOD(S) IN SIMULATION
 MODEL TIME UNIT IS DAYS
 MODEL LENGTH UNIT IS FEET
  Confining bed flag for each layer:
   0   0   0   0   0   0   0   0   0   0   0   0   0   0   0   0   0   0   0   0
   0   0   0   0   0   0   0   0   0   0   0   0   0   0   0   0   0   0   0   0
  IRCHTP=            1      IEVTTP=            1
 MAXIMUM NUMBER OF PARTICLES IS   500000
12370827 ELEMENTS IN THE "A" ARRAY



                               DELR
 READING ON UNIT  19 WITH FORMAT: (FREE)              



                               DELC
 READING ON UNIT  19 WITH FORMAT: (FREE)              


 STRESS PERIOD     LENGTH       TIME STEPS     MULTIPLIER FOR DELT    SS FLAG
 ----------------------------------------------------------------------------
        1         1.000000          1                    1.000         SS

 STEADY-STATE SIMULATION



  
  107 COLUMNS  141 ROWS   40 LAYERS    0 CONFINING LAYERS
 IGRID (GRID TYPE CODE) IS 0
  
 LAYCON (LAYER TYPE CODES):
  1  1  1  1  1  1  1  1  1  1  1  1  1  1  1  1  1  1  1  1  1  1  1  1  1
  1  1  1  1  1  1  1  1  1  1  1  1  1  1  1



           IBOUND                   FOR LAYER   1
 READING ON UNIT  10 WITH FORMAT: (FREE)              



           IBOUND                   FOR LAYER   2
 READING ON UNIT  10 WITH FORMAT: (FREE)              



           IBOUND                   FOR LAYER   3
 READING ON UNIT  10 WITH FORMAT: (FREE)              



           IBOUND                   FOR LAYER   4
 READING ON UNIT  10 WITH FORMAT: (FREE)              



           IBOUND                   FOR LAYER   5
 READING ON UNIT  10 WITH FORMAT: (FREE)              



           IBOUND                   FOR LAYER   6
 READING ON UNIT  10 WITH FORMAT: (FREE)              



           IBOUND                   FOR LAYER   7
 READING ON UNIT  10 WITH FORMAT: (FREE)              



           IBOUND                   FOR LAYER   8
 READING ON UNIT  10 WITH FORMAT: (FREE)              



           IBOUND                   FOR LAYER   9
 READING ON UNIT  10 WITH FORMAT: (FREE)              



           IBOUND                   FOR LAYER  10
 READING ON UNIT  10 WITH FORMAT: (FREE)              



           IBOUND                   FOR LAYER  11
 READING ON UNIT  10 WITH FORMAT: (FREE)              



           IBOUND                   FOR LAYER  12
 READING ON UNIT  10 WITH FORMAT: (FREE)              



           IBOUND                   FOR LAYER  13
 READING ON UNIT  10 WITH FORMAT: (FREE)              



           IBOUND                   FOR LAYER  14
 READING ON UNIT  10 WITH FORMAT: (FREE)              



           IBOUND                   FOR LAYER  15
 READING ON UNIT  10 WITH FORMAT: (FREE)              



           IBOUND                   FOR LAYER  16
 READING ON UNIT  10 WITH FORMAT: (FREE)              



           IBOUND                   FOR LAYER  17
 READING ON UNIT  10 WITH FORMAT: (FREE)              



           IBOUND                   FOR LAYER  18
 READING ON UNIT  10 WITH FORMAT: (FREE)              



           IBOUND                   FOR LAYER  19
 READING ON UNIT  10 WITH FORMAT: (FREE)              



           IBOUND                   FOR LAYER  20
 READING ON UNIT  10 WITH FORMAT: (FREE)              



           IBOUND                   FOR LAYER  21
 READING ON UNIT  10 WITH FORMAT: (FREE)              



           IBOUND                   FOR LAYER  22
 READING ON UNIT  10 WITH FORMAT: (FREE)              



           IBOUND                   FOR LAYER  23
 READING ON UNIT  10 WITH FORMAT: (FREE)              



           IBOUND                   FOR LAYER  24
 READING ON UNIT  10 WITH FORMAT: (FREE)              



           IBOUND                   FOR LAYER  25
 READING ON UNIT  10 WITH FORMAT: (FREE)              



           IBOUND                   FOR LAYER  26
 READING ON UNIT  10 WITH FORMAT: (FREE)              



           IBOUND                   FOR LAYER  27
 READING ON UNIT  10 WITH FORMAT: (FREE)              



           IBOUND                   FOR LAYER  28
 READING ON UNIT  10 WITH FORMAT: (FREE)              



           IBOUND                   FOR LAYER  29
 READING ON UNIT  10 WITH FORMAT: (FREE)              



           IBOUND                   FOR LAYER  30
 READING ON UNIT  10 WITH FORMAT: (FREE)              



           IBOUND                   FOR LAYER  31
 READING ON UNIT  10 WITH FORMAT: (FREE)              



           IBOUND                   FOR LAYER  32
 READING ON UNIT  10 WITH FORMAT: (FREE)              



           IBOUND                   FOR LAYER  33
 READING ON UNIT  10 WITH FORMAT: (FREE)              



           IBOUND                   FOR LAYER  34
 READING ON UNIT  10 WITH FORMAT: (FREE)              



           IBOUND                   FOR LAYER  35
 READING ON UNIT  10 WITH FORMAT: (FREE)              



           IBOUND                   FOR LAYER  36
 READING ON UNIT  10 WITH FORMAT: (FREE)              



           IBOUND                   FOR LAYER  37
 READING ON UNIT  10 WITH FORMAT: (FREE)              



           IBOUND                   FOR LAYER  38
 READING ON UNIT  10 WITH FORMAT: (FREE)              



           IBOUND                   FOR LAYER  39
 READING ON UNIT  10 WITH FORMAT: (FREE)              



           IBOUND                   FOR LAYER  40
 READING ON UNIT  10 WITH FORMAT: (FREE)              

 POROSITY                 =  0.3000000     FOR LAYER   1

 POROSITY                 =  0.3000000     FOR LAYER   2

 POROSITY                 =  0.3000000     FOR LAYER   3

 POROSITY                 =  0.3000000     FOR LAYER   4

 POROSITY                 =  0.3000000     FOR LAYER   5

 POROSITY                 =  0.3000000     FOR LAYER   6

 POROSITY                 =  0.3000000     FOR LAYER   7

 POROSITY                 =  0.3000000     FOR LAYER   8

 POROSITY                 =  0.3000000     FOR LAYER   9

 POROSITY                 =  0.3000000     FOR LAYER  10

 POROSITY                 =  0.3000000     FOR LAYER  11

 POROSITY                 =  0.3000000     FOR LAYER  12

 POROSITY                 =  0.3000000     FOR LAYER  13

 POROSITY                 =  0.3000000     FOR LAYER  14

 POROSITY                 =  0.3000000     FOR LAYER  15

 POROSITY                 =  0.3000000     FOR LAYER  16

 POROSITY                 =  0.3000000     FOR LAYER  17

 POROSITY                 =  0.3000000     FOR LAYER  18

 POROSITY                 =  0.3000000     FOR LAYER  19

 POROSITY                 =  0.3000000     FOR LAYER  20

 POROSITY                 =  0.3000000     FOR LAYER  21

 POROSITY                 =  0.3000000     FOR LAYER  22

 POROSITY                 =  0.3000000     FOR LAYER  23

 POROSITY                 =  0.3000000     FOR LAYER  24

 POROSITY                 =  0.3000000     FOR LAYER  25

 POROSITY                 =  0.3000000     FOR LAYER  26

 POROSITY                 =  0.3000000     FOR LAYER  27

 POROSITY                 =  0.3000000     FOR LAYER  28

 POROSITY                 =  0.3000000     FOR LAYER  29

 POROSITY                 =  0.3000000     FOR LAYER  30

 POROSITY                 =  0.3000000     FOR LAYER  31

 POROSITY                 =  0.3000000     FOR LAYER  32

 POROSITY                 =  0.3000000     FOR LAYER  33

 POROSITY                 =  0.3000000     FOR LAYER  34

 POROSITY                 =  0.3000000     FOR LAYER  35

 POROSITY                 =  0.3000000     FOR LAYER  36

 POROSITY                 =  0.3000000     FOR LAYER  37

 POROSITY                 =  0.3000000     FOR LAYER  38

 POROSITY                 =  0.3000000     FOR LAYER  39

 POROSITY                 =  0.3000000     FOR LAYER  40
 Single Precision Binary Files determined from Head file
  
  ---------------
 HEADS WERE READ FOR LAYER   1, STRESS PERIOD   1 TIME STEP    1
 HEADS WERE READ FOR LAYER   2, STRESS PERIOD   1 TIME STEP    1
 HEADS WERE READ FOR LAYER   3, STRESS PERIOD   1 TIME STEP    1
 HEADS WERE READ FOR LAYER   4, STRESS PERIOD   1 TIME STEP    1
 HEADS WERE READ FOR LAYER   5, STRESS PERIOD   1 TIME STEP    1
 HEADS WERE READ FOR LAYER   6, STRESS PERIOD   1 TIME STEP    1
 HEADS WERE READ FOR LAYER   7, STRESS PERIOD   1 TIME STEP    1
 HEADS WERE READ FOR LAYER   8, STRESS PERIOD   1 TIME STEP    1
 HEADS WERE READ FOR LAYER   9, STRESS PERIOD   1 TIME STEP    1
 HEADS WERE READ FOR LAYER  10, STRESS PERIOD   1 TIME STEP    1
 HEADS WERE READ FOR LAYER  11, STRESS PERIOD   1 TIME STEP    1
 HEADS WERE READ FOR LAYER  12, STRESS PERIOD   1 TIME STEP    1
 HEADS WERE READ FOR LAYER  13, STRESS PERIOD   1 TIME STEP    1
 HEADS WERE READ FOR LAYER  14, STRESS PERIOD   1 TIME STEP    1
 HEADS WERE READ FOR LAYER  15, STRESS PERIOD   1 TIME STEP    1
 HEADS WERE READ FOR LAYER  16, STRESS PERIOD   1 TIME STEP    1
 HEADS WERE READ FOR LAYER  17, STRESS PERIOD   1 TIME STEP    1
 HEADS WERE READ FOR LAYER  18, STRESS PERIOD   1 TIME STEP    1
 HEADS WERE READ FOR LAYER  19, STRESS PERIOD   1 TIME STEP    1
 HEADS WERE READ FOR LAYER  20, STRESS PERIOD   1 TIME STEP    1
 HEADS WERE READ FOR LAYER  21, STRESS PERIOD   1 TIME STEP    1
 HEADS WERE READ FOR LAYER  22, STRESS PERIOD   1 TIME STEP    1
 HEADS WERE READ FOR LAYER  23, STRESS PERIOD   1 TIME STEP    1
 HEADS WERE READ FOR LAYER  24, STRESS PERIOD   1 TIME STEP    1
 HEADS WERE READ FOR LAYER  25, STRESS PERIOD   1 TIME STEP    1
 HEADS WERE READ FOR LAYER  26, STRESS PERIOD   1 TIME STEP    1
 HEADS WERE READ FOR LAYER  27, STRESS PERIOD   1 TIME STEP    1
 HEADS WERE READ FOR LAYER  28, STRESS PERIOD   1 TIME STEP    1
 HEADS WERE READ FOR LAYER  29, STRESS PERIOD   1 TIME STEP    1
 HEADS WERE READ FOR LAYER  30, STRESS PERIOD   1 TIME STEP    1
 HEADS WERE READ FOR LAYER  31, STRESS PERIOD   1 TIME STEP    1
 HEADS WERE READ FOR LAYER  32, STRESS PERIOD   1 TIME STEP    1
 HEADS WERE READ FOR LAYER  33, STRESS PERIOD   1 TIME STEP    1
 HEADS WERE READ FOR LAYER  34, STRESS PERIOD   1 TIME STEP    1
 HEADS WERE READ FOR LAYER  35, STRESS PERIOD   1 TIME STEP    1
 HEADS WERE READ FOR LAYER  36, STRESS PERIOD   1 TIME STEP    1
 HEADS WERE READ FOR LAYER  37, STRESS PERIOD   1 TIME STEP    1
 HEADS WERE READ FOR LAYER  38, STRESS PERIOD   1 TIME STEP    1
 HEADS WERE READ FOR LAYER  39, STRESS PERIOD   1 TIME STEP    1
 HEADS WERE READ FOR LAYER  40, STRESS PERIOD   1 TIME STEP    1
 HEADS HAVE BEEN READ
 READING FLOW PACKAGE BUDGET DATA FOR STRESS PERIOD    1 , TIME STEP    1 ...
 Reading    CONSTANT HEAD for Period    1   Time Step    1
 Reading FLOW RIGHT FACE  for Period    1   Time Step    1
 Reading FLOW FRONT FACE  for Period    1   Time Step    1
 Reading FLOW LOWER FACE  for Period    1   Time Step    1
   FLOW RATES BETWEEN CELLS HAVE BEEN READ
  
 STARTING LOCATIONS NOW BEING READ FROM FILE...
  STARTING LOCATIONS HAVE BEEN READ FROM FILE
 NUMBER OF VALID PARTICLES =       572
  
  11857 CELLS HAD ERRORS >   0.0010
   MAXIMUM ERROR = -200.0000% IN ROW    5 COL   22 LAYER    1
  CELL-BY-CELL ERROR SUMMARY:  ROW  COLUMN  LAYER  ERROR(%)  ERROR(ABSOLUTE)
  (ONLY FIRST 500 ERRORS ARE LISTED)
    5   22    1-200.0000   -0.28772E+01
    5   48    1-200.0000   -0.16357E+03
    5   49    1 200.0000    0.11162E+03
    5   50    1-200.0000   -0.83263E+02
    5   51    1-200.0000   -0.11723E+03
    5   52    1 200.0000    0.10156E+03
    5   53    1-200.0000   -0.48063E+02
    5   54    1-200.0000   -0.11797E+03
    5   55    1-200.0000   -0.55938E+01
    5   56    1 200.0000    0.94048E+00
    5   57    1-200.0000   -0.85025E+02
    5   58    1-200.0000   -0.62778E+02
    5   59    1-200.0000   -0.93484E+01
    5   60    1-200.0000   -0.69957E+02
    5   61    1-200.0000   -0.63037E+02
    5   62    1-200.0000   -0.56684E+02
    5   63    1-200.0000   -0.63682E+02
    5   64    1-200.0000   -0.28401E+02
    5   65    1-200.0000   -0.85213E+02
    5   66    1-200.0000   -0.78659E+02
    5   67    1 200.0000    0.52435E+02
    5   68    1-200.0000   -0.82646E+02
    5   69    1-200.0000   -0.98346E+02
    5   70    1 200.0000    0.10576E+03
    5   71    1-200.0000   -0.54447E+02
    5   72    1-200.0000   -0.90555E+02
    5   73    1 200.0000    0.25071E+02
    5   74    1 200.0000    0.62966E+01
    5   75    1-200.0000   -0.80220E+02
    5   76    1-200.0000   -0.39214E+02
    5   77    1 200.0000    0.40009E+02
    5   78    1-200.0000   -0.59155E+02
    5   79    1-200.0000   -0.10011E+03
    5   80    1-200.0000   -0.36042E+03
    5  103    1 200.0000    0.16220E+01
    6   22    1-200.0000   -0.20822E+01
    6   45    1-200.0000   -0.30804E+03
    6   46    1-200.0000   -0.12229E+03
    6   47    1 200.0000    0.12790E+03
    6   48    1-200.0000   -0.77840E+01
    6   49    1-200.0000   -0.53978E+02
    6   50    1-200.0000   -0.20572E+01
    6   51    1 200.0000    0.58653E+00
    6   52    1-200.0000   -0.48886E+02
    6   53    1-200.0000   -0.36067E+02
    6   54    1-200.0000   -0.17856E+02
    6   55    1-200.0000   -0.27328E+02
    6   56    1-200.0000   -0.27672E+02
    6   57    1-200.0000   -0.48418E+02
    6   58    1-200.0000   -0.26259E+02
    6   59    1 200.0000    0.32100E+02
    6   60    1-200.0000   -0.54754E+02
    6   61    1-200.0000   -0.45685E+02
    6   62    1 200.0000    0.14516E+03
    6   63    1-200.0000   -0.49870E+02
    6   64    1-200.0000   -0.61276E+02
    6   65    1 200.0000    0.13345E+03
    6   66    1-200.0000   -0.24181E+02
    6   67    1-200.0000   -0.64159E+02
    6   68    1 200.0000    0.20491E+02
    6   69    1 200.0000    0.64211E+01
    6   70    1-200.0000   -0.61715E+02
    6   71    1-200.0000   -0.31631E+02
    6   72    1 200.0000    0.22314E+01
    6   73    1-200.0000   -0.38937E+02
    6   74    1-200.0000   -0.35721E+02
    6   75    1-200.0000   -0.27978E+02
    6   76    1-200.0000   -0.23861E+02
    6   77    1 200.0000    0.49035E+01
    6   78    1-200.0000   -0.36205E+02
    6   79    1-200.0000   -0.20698E+02
    6   80    1 200.0000    0.10035E+03
    6   81    1-200.0000   -0.32837E+03
    6  103    1 200.0000    0.12464E+01
    7   22    1-200.0000   -0.12425E+01
    7   44    1-200.0000   -0.14095E+03
    7   45    1 200.0000    0.16596E+02
    7   46    1 200.0000    0.62475E+01
    7   47    1-200.0000   -0.41241E+01
    7   48    1-200.0000   -0.15183E+02
    7   49    1-200.0000   -0.24420E+02
    7   50    1 200.0000    0.40420E+01
    7   51    1 200.0000    0.31119E+01
    7   52    1-200.0000   -0.40139E+02
    7   53    1-200.0000   -0.94793E+01
    7   54    1 200.0000    0.74785E+02
    7   55    1-200.0000   -0.41946E+02
    7   56    1-200.0000   -0.35036E+02
    7   57    1 200.0000    0.15615E+03
    7   58    1-200.0000   -0.36948E+02
    7   59    1-200.0000   -0.43859E+02
    7   60    1 200.0000    0.78266E+02
    7   61    1-200.0000   -0.16303E+02
    7   62    1-200.0000   -0.46073E+02
    7   63    1-200.0000   -0.25206E+00
    7   64    1-200.0000   -0.61470E+01
    7   65    1-200.0000   -0.32665E+02
    7   66    1-200.0000   -0.25096E+02
    7   67    1-200.0000   -0.18935E+02
    7   68    1-200.0000   -0.11225E+02
    7   69    1-200.0000   -0.15387E+02
    7   70    1-200.0000   -0.38313E+02
    7   71    1-200.0000   -0.10871E+02
    7   72    1 200.0000    0.36372E+02
    7   73    1-200.0000   -0.40027E+02
    7   74    1-200.0000   -0.27788E+02
    7   75    1 200.0000    0.13330E+03
    7   76    1-200.0000   -0.32323E+02
    7   77    1-200.0000   -0.36152E+02
    7   78    1 200.0000    0.13530E+03
    7   79    1-200.0000   -0.29605E+01
    7   80    1-200.0000   -0.29759E+02
    7   81    1-200.0000   -0.33765E+03
    7  102    1 200.0000    0.43846E+01
    8   22    1-200.0000   -0.82357E+00
    8   43    1-200.0000   -0.16182E+03
    8   44    1-200.0000   -0.22240E+01
    8   45    1 200.0000    0.35204E+02
    8   46    1 200.0000    0.27900E+02
    8   47    1-200.0000   -0.24223E+02
    8   48    1 200.0000    0.87479E+00
    8   49    1 200.0000    0.78144E+02
    8   50    1-200.0000   -0.28755E+02
    8   51    1-200.0000   -0.22368E+02
    8   52    1 200.0000    0.90233E+02
    8   53    1-200.0000   -0.23988E+02
    8   54    1-200.0000   -0.30202E+02
    8   55    1 200.0000    0.25778E+02
    8   56    1-200.0000   -0.14374E+02
    8   57    1-200.0000   -0.28363E+02
    8   58    1-200.0000   -0.13010E+02
    8   59    1-200.0000   -0.14583E+02
    8   60    1-200.0000   -0.39834E+01
    8   61    1-200.0000   -0.18090E+02
    8   62    1-200.0000   -0.26722E+02
    8   63    1 200.0000    0.13314E+02
    8   64    1 200.0000    0.34211E+01
    8   65    1-200.0000   -0.34962E+02
    8   66    1 200.0000    0.41988E+00
    8   67    1 200.0000    0.64065E+02
    8   68    1-200.0000   -0.33897E+02
    8   69    1-200.0000   -0.23376E+02
    8   70    1 200.0000    0.12475E+03
    8   71    1-200.0000   -0.28783E+02
    8   72    1-200.0000   -0.31194E+02
    8   73    1 200.0000    0.63374E+02
    8   74    1-200.0000   -0.12379E+02
    8   75    1-200.0000   -0.30179E+02
    8   76    1 200.0000    0.59756E+01
    8   77    1-200.0000   -0.27442E+00
    8   78    1-200.0000   -0.92491E+01
    8   79    1-200.0000   -0.59637E+01
    8   80    1  22.3960    0.47344E+01
    8  102    1 200.0000    0.27643E+01
    9   22    1-200.0000   -0.48836E+01
    9   43    1 200.0000    0.24063E+02
    9   44    1 200.0000    0.64511E+02
    9   45    1-200.0000   -0.13242E+02
    9   46    1-200.0000   -0.10002E+02
    9   47    1 200.0000    0.35106E+02
    9   48    1-200.0000   -0.11933E+02
    9   49    1-200.0000   -0.16175E+02
    9   50    1-200.0000   -0.19214E+00
    9   51    1-200.0000   -0.11298E+02
    9   52    1-200.0000   -0.44425E+01
    9   53    1-200.0000   -0.15230E+02
    9   54    1-200.0000   -0.17154E+02
    9   55    1 200.0000    0.24520E+02
    9   56    1-200.0000   -0.10852E+02
    9   57    1-200.0000   -0.26320E+02
    9   58    1 200.0000    0.31820E+02
    9   59    1 200.0000    0.15853E+02
    9   60    1-200.0000   -0.28662E+02
    9   61    1 200.0000    0.43879E+01
    9   62    1 200.0000    0.67647E+02
    9   63    1-200.0000   -0.28228E+02
    9   64    1-200.0000   -0.17778E+02
    9   65    1 200.0000    0.72994E+02
    9   66    1-200.0000   -0.21372E+02
    9   67    1-200.0000   -0.23738E+02
    9   68    1 200.0000    0.18820E+02
    9   69    1-200.0000   -0.12463E+02
    9   70    1-200.0000   -0.18532E+02
    9   71    1-200.0000   -0.10265E+02
    9   72    1-200.0000   -0.11685E+02
    9   73    1 200.0000    0.63738E+01
    9   74    1-200.0000   -0.11392E+02
    9   75    1-200.0000   -0.18314E+02
    9   76    1 200.0000    0.26660E+02
    9   77    1 200.0000    0.10852E+02
    9   78    1-200.0000   -0.18770E+02
    9   79    1 200.0000    0.23025E+02
    9   80    1 200.0000    0.10213E+03
    9  102    1 200.0000    0.26073E+01
   10   21    1 200.0000    0.16514E+01
   10   42    1-200.0000   -0.21057E+03
   10   43    1 200.0000    0.84874E+01
   10   44    1 200.0000    0.36560E+01
   10   45    1-200.0000   -0.51340E+01
   10   46    1-200.0000   -0.60083E+01
   10   47    1 200.0000    0.19458E+02
   10   48    1-200.0000   -0.11157E+02
   10   49    1-200.0000   -0.15238E+02
   10   50    1 200.0000    0.47305E+02
   10   51    1-200.0000   -0.49633E+01
   10   52    1-200.0000   -0.21221E+02
   10   53    1 200.0000    0.35425E+02
   10   54    1 200.0000    0.18029E+02
   10   55    1-200.0000   -0.22546E+02
   10   56    1 200.0000    0.24268E+01
   10   57    1 200.0000    0.42142E+02
   10   58    1-200.0000   -0.20669E+02
   10   59    1-200.0000   -0.13412E+02
   10   60    1 200.0000    0.25818E+02
   10   61    1-200.0000   -0.13759E+02
   10   62    1-200.0000   -0.15088E+02
   10   63    1-200.0000   -0.40522E+01
   10   64    1-200.0000   -0.11059E+02
   10   65    1 200.0000    0.97542E+00
   10   66    1-200.0000   -0.14727E+02
   10   67    1-200.0000   -0.15389E+02
   10   68    1 200.0000    0.33093E+02
   10   69    1-200.0000   -0.93852E+01
   10   70    1-200.0000   -0.21014E+02
   10   71    1 200.0000    0.39319E+02
   10   72    1 200.0000    0.12036E+02
   10   73    1-200.0000   -0.21105E+02
   10   74    1 200.0000    0.12071E+02
   10   75    1 200.0000    0.48732E+02
   10   76    1-200.0000   -0.17522E+02
   10   77    1-200.0000   -0.53295E+01
   10   78    1 200.0000    0.58387E+02
   10   79    1-200.0000   -0.36876E+01
   10   80    1-200.0000   -0.27337E+02
   10   81    1-200.0000   -0.16165E+03
   10  102    1 200.0000    0.24644E+01
   11   21    1 200.0000    0.10852E+01
   11   43    1  70.2732    0.64856E+01
   11   44    1-200.0000   -0.74774E+01
   11   45    1 200.0000    0.54876E+02
   11   46    1-200.0000   -0.40541E+00
   11   47    1-200.0000   -0.14338E+02
   11   48    1 200.0000    0.23818E+02
   11   49    1 200.0000    0.12167E+02
   11   50    1-200.0000   -0.15874E+02
   11   51    1-200.0000   -0.12883E+01
   11   52    1 200.0000    0.16027E+02
   11   53    1-200.0000   -0.11993E+02
   11   54    1-200.0000   -0.94183E+01
   11   55    1 200.0000    0.13409E+01
   11   56    1-200.0000   -0.71664E+01
   11   57    1-200.0000   -0.34963E+01
   11   58    1-200.0000   -0.12967E+02
   11   59    1-200.0000   -0.89996E+01
   11   60    1 200.0000    0.24095E+02
   11   61    1-200.0000   -0.14050E+02
   11   62    1-200.0000   -0.16346E+02
   11   63    1 200.0000    0.61155E+02
   11   64    1-200.0000   -0.74622E+01
   11   65    1-200.0000   -0.19878E+02
   11   66    1 200.0000    0.42588E+02
   11   67    1 200.0000    0.11727E+02
   11   68    1-200.0000   -0.19304E+02
   11   69    1 200.0000    0.58960E+01
   11   70    1 200.0000    0.28236E+02
   11   71    1-200.0000   -0.15505E+02
   11   72    1-200.0000   -0.80736E+01
   11   73    1 200.0000    0.17429E+02
   11   74    1-200.0000   -0.74813E+01
   11   75    1-200.0000   -0.64218E+01
   11   76    1-200.0000   -0.76696E+00
   11   77    1-200.0000   -0.23562E+01
   11   78    1 200.0000    0.14822E+02
   11   79    1-200.0000   -0.11768E+01
   11   80    1-200.0000   -0.52319E+01
   11   81    1 200.0000    0.51058E+02
   11  102    1 200.0000    0.23167E+01
   12   21    1-134.7619   -0.26485E+01
   12   42    1-200.0000   -0.11606E+03
   12   43    1 200.0000    0.24366E+02
   12   44    1 200.0000    0.96807E+01
   12   45    1-200.0000   -0.75286E+01
   12   46    1-200.0000   -0.22744E+01
   12   47    1 200.0000    0.25970E+01
   12   48    1-200.0000   -0.29682E+01
   12   49    1-200.0000   -0.40950E+01
   12   50    1-200.0000   -0.75785E+01
   12   51    1-200.0000   -0.12614E+01
   12   52    1 200.0000    0.87920E+01
   12   53    1-200.0000   -0.12697E+02
   12   54    1-200.0000   -0.70550E+01
   12   55    1 200.0000    0.44733E+02
   12   56    1-200.0000   -0.12158E+02
   12   57    1-200.0000   -0.14932E+02
   12   58    1 200.0000    0.68110E+02
   12   59    1-200.0000   -0.61904E+01
   12   60    1-200.0000   -0.16312E+02
   12   61    1 200.0000    0.27502E+02
   12   62    1 200.0000    0.67431E+01
   12   63    1-200.0000   -0.16117E+02
   12   64    1-200.0000   -0.40154E+00
   12   65    1 200.0000    0.99486E+01
   12   66    1-200.0000   -0.98347E+01
   12   67    1-200.0000   -0.72550E+01
   12   68    1-200.0000   -0.11450E+01
   12   69    1-200.0000   -0.37201E+01
   12   70    1 200.0000    0.16159E+00
   12   71    1-200.0000   -0.10804E+02
   12   72    1-200.0000   -0.47455E+01
   12   73    1 200.0000    0.26531E+02
   12   74    1-200.0000   -0.92440E+01
   12   75    1-200.0000   -0.95962E+01
   12   76    1 200.0000    0.60735E+02
   12   77    1-200.0000   -0.11234E+01
   12   78    1-200.0000   -0.81730E+01
   12   79    1 200.0000    0.49448E+02
   12   80    1 200.0000    0.17356E+02
   12   81    1-200.0000   -0.84488E+02
   12  102    1 200.0000    0.21577E+01
   13   20    1 200.0000    0.13742E+01
   13   42    1-200.0000   -0.11383E+03
   13   43    1 200.0000    0.13486E+02
   13   44    1 200.0000    0.39986E+01
   13   45    1-200.0000   -0.74277E+01
   13   46    1 200.0000    0.33937E+01
   13   47    1 200.0000    0.17958E+02
   13   48    1-200.0000   -0.95899E+01
   13   49    1-200.0000   -0.52955E+01
   13   50    1 200.0000    0.48672E+02
   13   51    1-200.0000   -0.94226E+01
   13   52    1-200.0000   -0.10780E+02
   13   53    1 200.0000    0.42320E+02
   13   54    1-200.0000   -0.42884E+01
   13   55    1-200.0000   -0.12216E+02
   13   56    1 200.0000    0.10231E+02
   13   57    1 200.0000    0.11208E+01
   13   58    1-200.0000   -0.10352E+02
   13   59    1-200.0000   -0.40543E+01
   13   60    1-200.0000   -0.92903E+00
   13   61    1-200.0000   -0.15408E+01
   13   62    1-200.0000   -0.39890E+01
   13   63    1-200.0000   -0.90362E+01
   13   64    1 200.0000    0.15521E+01
   13   65    1 200.0000    0.10058E+02
   13   66    1-200.0000   -0.12094E+02
   13   67    1-200.0000   -0.44558E+01
   13   68    1 200.0000    0.44753E+02
   13   69    1-200.0000   -0.10627E+02
   13   70    1-200.0000   -0.11307E+02
   13   71    1 200.0000    0.62760E+02
   13   72    1-200.0000   -0.49601E+01
   13   73    1-200.0000   -0.11039E+02
   13   74    1 200.0000    0.25112E+02
   13   75    1 200.0000    0.60507E+01
   13   76    1-200.0000   -0.82277E+01
   13   77    1 200.0000    0.54645E+01
   13   78    1 200.0000    0.13463E+02
   13   79    1 200.0000    0.34364E+01
   13   80    1 200.0000    0.39635E+01
   13   81    1-200.0000   -0.12375E+03
   13  102    1 200.0000    0.19981E+01
   14   20    1 200.0000    0.10364E+01
   14   43    1 -88.8115   -0.61783E+01
   14   44    1-200.0000   -0.18373E+01
   14   45    1 200.0000    0.32991E+02
   14   46    1-200.0000   -0.58555E+01
   14   47    1-200.0000   -0.67896E+01
   14   48    1 200.0000    0.16312E+02
   14   49    1-200.0000   -0.29380E+01
   14   50    1-200.0000   -0.74807E+01
   14   51    1 200.0000    0.50339E+00
   14   52    1-200.0000   -0.20493E+01
   14   53    1-200.0000   -0.15686E+01
   14   54    1-200.0000   -0.41185E+01
   14   55    1-200.0000   -0.53481E+01
   14   56    1 200.0000    0.69903E+01
   14   57    1 200.0000    0.38497E+00
   14   58    1-200.0000   -0.97476E+01
   14   59    1 200.0000    0.59049E+01
   14   60    1 200.0000    0.18178E+02
   14   61    1-200.0000   -0.10424E+02
   14   62    1-200.0000   -0.38099E+01
   14   63    1 200.0000    0.49007E+02
   14   64    1-200.0000   -0.97697E+01
   14   65    1-200.0000   -0.93298E+01
   14   66    1 200.0000    0.39220E+02
   14   67    1-200.0000   -0.46218E+01
   14   68    1-200.0000   -0.99806E+01
   14   69    1 200.0000    0.91422E+01
   14   70    1 200.0000    0.20911E+00
   14   71    1-200.0000   -0.65344E+01
   14   72    1-200.0000   -0.19674E+01
   14   73    1-200.0000   -0.21972E+00
   14   74    1 200.0000    0.33847E+01
   14   75    1 200.0000    0.56794E+00
   14   76    1-200.0000   -0.32430E+01
   14   77    1 200.0000    0.92742E+01
   14   78    1 200.0000    0.18218E+02
   14   79    1 200.0000    0.77251E+00
   14   80    1-188.6442   -0.33844E+02
   14  102    1 200.0000    0.18168E+01
   15   20    1 200.0000    0.79214E+00
   15   43    1 200.0000    0.62530E+01
   15   44    1-200.0000   -0.23782E+01
   15   45    1-200.0000   -0.16530E+01
   15   46    1-200.0000   -0.27633E+01
   15   47    1-200.0000   -0.32503E+01
   15   48    1 200.0000    0.64739E+01
   15   49    1-200.0000   -0.27640E+01
   15   50    1-200.0000   -0.60844E+01
   15   51    1 200.0000    0.12617E+02
   15   52    1 200.0000    0.33917E+01
   15   53    1-200.0000   -0.76308E+01
   15   54    1 200.0000    0.65689E+01
   15   55    1 200.0000    0.18695E+02
   15   56    1-200.0000   -0.78132E+01
   15   57    1-200.0000   -0.27518E+01
   15   58    1 200.0000    0.30423E+02
   15   59    1-200.0000   -0.66501E+01
   15   60    1-200.0000   -0.64710E+01
   15   61    1 200.0000    0.14928E+02
   15   62    1-200.0000   -0.34987E+01
   15   63    1-200.0000   -0.65252E+01
   15   64    1-200.0000   -0.15620E+00
   15   65    1-200.0000   -0.25391E+01
   15   66    1 200.0000    0.98377E+00
   15   67    1-200.0000   -0.36076E+01
   15   68    1-200.0000   -0.48923E+01
   15   69    1 200.0000    0.10540E+02
   15   70    1 200.0000    0.12620E+01
   15   71    1-200.0000   -0.71090E+01
   15   72    1 200.0000    0.91526E+01
   15   73    1 200.0000    0.15857E+02
   15   74    1-200.0000   -0.57193E+01
   15   75    1 200.0000    0.13797E+01
   15   76    1 200.0000    0.36211E+02
   15   77    1-200.0000   -0.13540E+01
   15   78    1 200.0000    0.92460E+00
   15   79    1 200.0000    0.43508E+02
   15  102    1 200.0000    0.16268E+01
   16   20    1-144.9841   -0.28182E+01
   16   43    1 200.0000    0.16035E+02
   16   44    1-200.0000   -0.26804E+01
   16   45    1-200.0000   -0.60805E+01
   16   46    1 200.0000    0.12868E+02
   16   47    1 200.0000    0.36449E+01
   16   48    1-200.0000   -0.58302E+01
   16   49    1 200.0000    0.36662E+01
   16   50    1 200.0000    0.11666E+02
   16   51    1-200.0000   -0.52857E+01
   16   52    1-200.0000   -0.22480E+01
   16   53    1 200.0000    0.11395E+02
   16   54    1-200.0000   -0.33458E+01
   16   55    1-200.0000   -0.35396E+01
   16   56    1 200.0000    0.25033E+01
   16   57    1-200.0000   -0.20957E+01
   16   58    1-200.0000   -0.41387E+00
   16   59    1-200.0000   -0.32657E+01
   16   60    1-200.0000   -0.33125E+01
   16   61    1 200.0000    0.10222E+02
   16   62    1-200.0000   -0.29761E+01
   16   63    1-200.0000   -0.62073E+01
   16   64    1 200.0000    0.18249E+02
   16   65    1 200.0000    0.27109E+01
   16   66    1-200.0000   -0.70916E+01
   16   67    1 200.0000    0.94427E+01
   16   68    1 200.0000    0.15350E+02
   16   69    1-200.0000   -0.63258E+01
   16   70    1-200.0000   -0.52539E+00
   16   71    1 200.0000    0.22321E+02
   16   72    1-200.0000   -0.38320E+01
   16   73    1-200.0000   -0.28900E+01
   16   74    1 200.0000    0.11523E+02
   16   75    1 200.0000    0.33631E+00
   16   76    1 200.0000    0.12443E+00
   16   77    1 200.0000    0.48461E+01
   16   78    1 200.0000    0.54600E+01
   16   79    1-200.0000   -0.28673E+02
   16  102    1 200.0000    0.14287E+01
   17   19    1 200.0000    0.14103E+01
   17   43    1-200.0000   -0.49263E+02
   17   44    1-200.0000   -0.64751E-02
   17   45    1 200.0000    0.44151E+01
   17   46    1-200.0000   -0.39792E+01
   17   47    1-200.0000   -0.25231E+01
   17   48    1 200.0000    0.18115E+01
   17   49    1-200.0000   -0.17404E+01
   17   50    1-200.0000   -0.11923E+01
   17   51    1-200.0000   -0.18424E+01
   17   52    1-200.0000   -0.12643E+01
   17   53    1 200.0000    0.49250E+01
   17   54    1-200.0000   -0.26779E+01
   17   55    1-200.0000   -0.29094E+01
   17   56    1 200.0000    0.16260E+02
   17   57    1-200.0000   -0.15380E+01
   17   58    1-200.0000   -0.50365E+01
   17   59    1 200.0000    0.18353E+02
   17   60    1 200.0000    0.30105E+01
   17   61    1-200.0000   -0.55110E+01
   17   62    1 200.0000    0.59229E+01
    
 TRAVEL TIME SUMMARY FOR ALL PARTICLES:
 MINIMUM TRAVEL TIME =   2.28899E-04
 MAXIMUM TRAVEL TIME =   2.79935E+03
 AVERAGE TRAVEL TIME =   5.02320E+01
   70.8% OF THE PARTICLES HAD TRAVEL TIMES LESS THAN THEAVERAGE TRAVEL TIME
    
       0 PARTICLES REMAIN ACTIVE
     572 PARTICLES STOPPED AT INTERNAL SINKS/SOURCES OR BOUNDARIES
       0 PARTICLES STOPPED IN AN AUTOMATIC TERMINATION ZONE
       0 PARTICLES WERE STRANDED IN INACTIVE CELLS
       0 PARTICLES WERE NOT RELEASED
 -----
     572 PARTICLES ACCOUNTED FOR OUT OF A TOTAL OF     572
